54

O 10.189159475944379 8.429236966996836 5.782658577553598
O 9.8308452109346 7.556794047587827 7.744156063393199
O 10.123428290119394 4.412308540018921 5.476214324012548
O 10.016072643233558 5.586785392508921 3.2049775708314314
H 9.587444289960205 8.873115809000634 5.1388837769206015
H 9.922466360937053 5.344324578621424 7.633536250939233
H 9.05705661042647 6.117133067884956 6.206451505794784
H 10.899717110614006 6.23378068405204 6.356506660978971
H 10.051848369958938 4.689410471625978 4.50956250137303
H 10.076930694124913 3.2590584015712682 7.180585571042046
H 10.87773893303409 2.4612068140425722 5.741422284203259
H 9.098636472747327 2.619053856401131 5.845743294347197
H 10.327110441475595 6.475676167703325 3.355066011804355
C 9.866633690871769 8.58366437328652 7.064853315402314
C 9.968710787103118 5.884485356917271 6.707835150485201
C 10.051358784380263 3.0917648378095484 6.0781532138043035
H 10.059177771251093 5.939536838562941 1.1741235540613406
H 11.491663632519996 5.097363256775654 1.7605912332436962
H 9.878118760886297 4.266931723237357 1.6796334285604821
C 10.403064930378967 5.1862825962989945 1.8708737694222648
H 8.800086428677242 9.926894705670918 8.206231999331784
H 10.501505433330902 9.90870293616078 8.457101112717627
C 9.75355885737998 9.91259914685657 7.676781488940546
C 9.924309653294202 11.096128565990801 6.734517802429965
H 9.100839620670705 11.169834512948546 6.026053748247082
H 10.846445744184157 11.006436280414933 6.156196709886956
H 9.987789637668127 12.024555002089201 7.277698932010666
Al 8.412266034822906 8.510864857326075 2.7099359265738423
Si 6.574516575207248 9.306866436864796 4.8262011332420744
Si 11.559521393822227 9.141375989143135 2.1079800868216325
Si 14.115343571117476 8.341625281131815 3.522932459018235
O 6.582539475277235 9.187821980878406 6.448163720138761
O 5.292942410415576 8.501276659506283 4.2265996413942295
O 6.350177821246479 10.863260907780555 4.359981797924496
O 14.254856150520125 6.957380510660411 4.364966594096082
O 14.200969419851749 9.649541220665267 4.474123690106821
O 15.28043462959416 8.447629272281834 2.4026054826082888
O 10.227511847014137 8.717614066603446 3.068230946993205
O 7.941120961271151 8.738520680820102 4.315596792559032
O 8.072880936508833 6.983619842566405 2.0893964034187644
O 7.8743989758094095 9.663058664038441 1.603064841833793
O 11.469455856948647 8.71773492557808 0.5336572326956881
O 12.66795405236497 8.266752683700078 2.843752675887004
O 11.865824706600657 10.706790725039427 2.2691664508715386
H 5.92678866947522 8.920358077578758 7.086036793373804
H 6.553959062268354 11.635886581913283 4.879426048663551
H 4.759650514968922 8.56286414077769 3.4392186020871174
H 7.589835896696204 10.51526929376306 1.285530270380001
H 7.836707750987122 6.742843112833439 1.1980290265763545
H 11.294684299082485 11.427282219858968 2.018451610974993
H 11.382033817598614 7.769170831813625 0.5086724924057233
H 14.5315605632526 6.979225922900257 5.276709550368036
H 14.423484892080642 10.287738266659355 5.145985712424431
H 15.771380193050433 9.204539972283039 2.095430954926926
