24

O 10.190352024000214 8.47683105578252 5.696483771239993
O 9.790562750460353 7.510899799292944 7.69479418468435
O 10.12464738003168 4.3761294317776835 5.474552360456376
O 10.01648490734628 5.566747384571018 3.2043382247022083
H 10.23554561737284 8.728208180907039 4.4557522101787335
H 9.98651328836754 5.460184749976087 7.692126328588101
H 9.103772678050115 6.158147271451887 6.294700646847107
H 10.881626722068448 6.299066417322805 6.381038476747753
H 10.036671654158283 4.441712695016009 4.510298924812145
H 10.075237459624375 3.2612871543040614 7.183334993280725
H 10.89509926084448 2.4343087379988773 5.815616879984435
H 9.100075543463637 2.590695736449722 5.872551134170649
H 10.321936165469467 6.465470080072366 3.365259144852548
C 9.869718744165395 8.590466239078237 6.922961193949085
C 9.970306298909165 6.2378931261435335 6.9432068255588515
C 10.04974335958034 3.0847434357033108 6.087919653820328
H 10.059170063926674 5.939338176783356 1.1732809059360871
H 11.491896414743076 5.097140862266659 1.7599895891660329
H 9.87876218783161 4.2672006300369 1.6775673525506554
C 10.402866226247731 5.187061722515173 1.8713402230986842
H 8.779547698117383 9.909427063981767 8.199054790732545
H 10.481549676315714 9.841929089551646 8.436855449177648
C 9.72278764766742 9.864322419835666 7.669321644343773
H 9.900288989954367 10.74393113211047 7.050274318739942
