24

O 10.189825126285994 8.42842001936215 5.7814988086396335
O 9.857813455989795 7.530802730067249 7.741380900598772
O 10.122746150415894 4.410649204820846 5.475395735627618
O 10.016218861440528 5.587205196837028 3.2042085718696436
H 9.587016573341602 8.8724593777349 5.13644661303139
H 9.98388184514633 5.459947615096025 7.692990250666256
H 9.107085492782888 6.188630636275158 6.298511670180553
H 10.899809284817888 6.2364803887260285 6.362316814897698
H 10.052869034383848 4.555833525694387 4.509959623344776
H 10.07709452630529 3.2599436675805067 7.1809467166209044
H 10.87751026107247 2.460016489715673 5.742795763522919
H 9.09968874649846 2.605725076154126 5.856720353565043
H 10.327893625812138 6.474868722204419 3.3554518704832637
C 9.905949723100903 8.592997751235815 7.01965148592708
C 9.979039301770731 6.231943081214058 6.9413530697325765
C 10.052910180119087 3.096968734580827 6.075412074271263
H 10.059725752150838 5.939482226964521 1.173242709733129
H 11.495189308927339 5.102149378681886 1.7579618784640345
H 9.878379492054934 4.26722991888745 1.6793129114099412
C 10.40324383719894 5.187953545085152 1.8722092470305736
H 8.792719279106633 9.923117043948926 8.208341909251025
H 10.501183344669952 9.909246811281706 8.458246437239488
C 9.74749094008926 9.894244385763642 7.681682973476049
H 9.892920037503602 10.760712618418394 7.045270769204854
