60

O 10.228332385374497 8.584806502989988 5.739276588303378
O 9.902392445935048 7.594764347765745 7.784414254030577
O 10.122987581836448 4.41115099745746 5.472008842791164
O 10.126393150139906 5.823620675610534 3.335406606442874
H 9.497295800768352 8.95842015433896 5.2060324513853296
H 10.053205777250296 5.345017613843629 7.372756911760101
H 9.084745952587884 6.095427419484841 6.083516390267544
H 10.892743521685093 6.216779020430046 6.095461577665085
H 10.18007932705207 5.128042806618365 4.037377363656935
H 10.045863159651569 3.5516162703057566 5.906607725491006
H 10.38533848039684 7.432089904006309 3.156297501406552
C 9.871878677379442 8.592554117628525 7.079205577241097
C 10.034573445275848 5.580525804116757 6.3305117076285935
H 10.18622263162339 5.938326868689169 1.3044144001854123
H 11.44313341489889 4.904158475881929 1.9438918675699084
H 9.770329862312051 4.309491286571571 1.8930059725362764
C 10.393020906339956 5.184590809814183 2.0383605694445457
H 8.780962567395555 10.03809374184474 8.202876341626329
H 10.471479784913996 9.95619628277717 8.434076971627459
C 9.717829557291843 9.950585056247622 7.669492695044645
C 9.91885336040693 11.111627859835393 6.720082809953037
H 9.099634263124306 11.15533071263682 5.980910002625188
H 10.837603214191102 10.99821589022877 6.140189733307246
C 9.968527806247415 12.425708186103654 7.489335985790805
H 9.09929520984133 12.468660264667635 8.169106413659625
H 10.838699967048411 12.44851358730284 8.134986086305108
C 9.990885421893141 13.716987024397968 6.671221138831541
H 9.100160277984145 13.78401669978906 6.034170771006155
H 10.849154270953823 13.6679982297339 5.9842893669686825
C 10.099604485447317 14.964380887844344 7.562557459470946
H 9.241322232457586 14.982478242976788 8.254242860790951
H 11.012168767207262 14.96215468492933 8.169477169606408
H 10.073874040905142 15.883301126117857 6.9624024012835255
Al 8.412266034822906 8.510864857326075 2.7099359265738423
Si 6.574516575207248 9.306866436864796 4.8262011332420744
Si 11.559521393822227 9.141375989143135 2.1079800868216325
Si 14.115343571117476 8.341625281131815 3.522932459018235
O 6.582539475277235 9.187821980878406 6.448163720138761
O 5.292942410415576 8.501276659506283 4.2265996413942295
O 6.350177821246479 10.863260907780555 4.359981797924496
O 14.254856150520125 6.957380510660411 4.364966594096082
O 14.200969419851749 9.649541220665267 4.474123690106821
O 15.28043462959416 8.447629272281834 2.4026054826082888
O 10.227511847014137 8.717614066603446 3.068230946993205
O 7.941120961271151 8.738520680820102 4.315596792559032
O 8.072880936508833 6.983619842566405 2.0893964034187644
O 7.8743989758094095 9.663058664038441 1.603064841833793
O 11.469455856948647 8.71773492557808 0.5336572326956881
O 12.66795405236497 8.266752683700078 2.843752675887004
O 11.865824706600657 10.706790725039427 2.2691664508715386
H 5.92678866947522 8.920358077578758 7.086036793373804
H 6.553959062268354 11.635886581913283 4.879426048663551
H 4.759650514968922 8.56286414077769 3.4392186020871174
H 7.589835896696204 10.51526929376306 1.285530270380001
H 7.836707750987122 6.742843112833439 1.1980290265763545
H 11.294684299082485 11.427282219858968 2.018451610974993
H 11.382033817598614 7.769170831813625 0.5086724924057233
H 14.5315605632526 6.979225922900257 5.276709550368036
H 14.423484892080642 10.287738266659355 5.145985712424431
H 15.771380193050433 9.204539972283039 2.095430954926926
