60

O 10.189520493774703 8.42796548798594 5.781614413301654
O 9.857847197179606 7.53046827356917 7.741514447714457
O 10.122753724431245 4.410583523019304 5.475356830958044
O 10.016082175285028 5.587169189117021 3.2041725265489394
H 9.58699366845981 8.872485432092976 5.136475481976035
H 9.983822918605476 5.459882095602416 7.692894273632929
H 9.107004937502724 6.1885879837504065 6.298531211858315
H 10.899676341915814 6.2364900301618285 6.362238529154222
H 10.05280805565562 4.555809668827056 4.509978202831612
H 10.077075483151482 3.2599956134425336 7.180925853019689
H 10.877500081552835 2.4600051798132667 5.742809368946628
H 9.099643940789129 2.605741509677254 5.856753836290398
H 10.32792718914674 6.474867340337436 3.355338722089014
C 9.907346784261726 8.59217830898908 7.021359563485152
C 9.97874452324132 6.232416188560553 6.941558528236868
C 10.05292260741524 3.0971157347189924 6.075297590985429
H 10.05945386166067 5.939425182872209 1.1733270206558306
H 11.491704139134724 5.09678453155935 1.760361221879641
H 9.878105772340687 4.26742361667465 1.6798483106709725
C 10.402573990130337 5.1881725082088455 1.8722458824367938
H 8.800616605134858 9.926339370552663 8.203268340507549
H 10.501698443546204 9.908219820710288 8.457314031345016
C 9.75517571075237 9.907152131043217 7.672056061321942
C 9.92209241899323 11.10688210837224 6.739142454835546
H 9.098585807492231 11.127282520317598 6.010502452124124
H 10.843433601814379 11.005330942058546 6.154840308858817
C 9.954207412025083 12.43526580585787 7.5298992228178205
H 9.094190866658723 12.473323207295648 8.174656995353772
H 10.831927744709734 12.461043141034597 8.163965047153384
C 9.988608433332015 13.708669531952092 6.6721628614524136
H 9.100674165691133 13.787174432820027 6.034558086710529
H 10.864987749576722 13.678489681189994 6.010196125663618
H 10.05469026574715 14.600325121668652 7.315039429222395
Al 8.412266034822906 8.510864857326075 2.7099359265738423
Si 6.574516575207248 9.306866436864796 4.8262011332420744
Si 11.559521393822227 9.141375989143135 2.1079800868216325
Si 14.115343571117476 8.341625281131815 3.522932459018235
O 6.582539475277235 9.187821980878406 6.448163720138761
O 5.292942410415576 8.501276659506283 4.2265996413942295
O 6.350177821246479 10.863260907780555 4.359981797924496
O 14.254856150520125 6.957380510660411 4.364966594096082
O 14.200969419851749 9.649541220665267 4.474123690106821
O 15.28043462959416 8.447629272281834 2.4026054826082888
O 10.227511847014137 8.717614066603446 3.068230946993205
O 7.941120961271151 8.738520680820102 4.315596792559032
O 8.072880936508833 6.983619842566405 2.0893964034187644
O 7.8743989758094095 9.663058664038441 1.603064841833793
O 11.469455856948647 8.71773492557808 0.5336572326956881
O 12.66795405236497 8.266752683700078 2.843752675887004
O 11.865824706600657 10.706790725039427 2.2691664508715386
H 5.92678866947522 8.920358077578758 7.086036793373804
H 6.553959062268354 11.635886581913283 4.879426048663551
H 4.759650514968922 8.56286414077769 3.4392186020871174
H 7.589835896696204 10.51526929376306 1.285530270380001
H 7.836707750987122 6.742843112833439 1.1980290265763545
H 11.294684299082485 11.427282219858968 2.018451610974993
H 11.382033817598614 7.769170831813625 0.5086724924057233
H 14.5315605632526 6.979225922900257 5.276709550368036
H 14.423484892080642 10.287738266659355 5.145985712424431
H 15.771380193050433 9.204539972283039 2.095430954926926
