51

O 10.227458798472394 8.47585256336923 5.739185402892644
O 9.856137402937138 7.5305826660923225 7.740845526434659
O 10.122589405006677 4.408718678208811 5.473194615115218
O 10.090395301143671 5.645018870373273 3.246995066224043
H 9.547785881835313 8.945912581752735 5.178681573733826
H 9.924469955388743 5.339813125087846 7.637868443143426
H 9.09546780197911 6.167790055619575 6.247033128439247
H 10.915485132819175 6.216702708356868 6.350189645951157
H 10.057207346018087 4.735998899848627 4.519746183033052
H 9.61877378607743 3.5793140238467775 5.605675632329418
H 10.320355345755074 6.594597361537501 3.363330424836654
C 9.861050013514141 8.557860356504124 7.014373720827387
C 9.98340770187121 5.9879754303227255 6.803790019706202
H 10.206077856631321 5.9205781723120925 1.1843524759825326
H 11.539476610081541 4.970669569822177 1.8878424109533176
H 9.876890884826716 4.276727980122839 1.799793694004764
C 10.465613653949646 5.178847646805534 1.9391804565330464
H 8.695094010449587 9.947619231613963 8.142263120091018
H 10.367122112394478 9.906756063676234 8.463909919579965
C 9.657924549666472 9.900366846476084 7.658327466677236
C 9.910808259318069 11.091703996702371 6.728283738328526
H 9.100215996752992 11.1896829452704 6.006603255270422
H 10.840003255183499 10.99759514892463 6.159754176529834
H 9.986146042647192 12.023230425400891 7.27730147097212
Al 8.412266034822906 8.510864857326075 2.7099359265738423
Si 6.574516575207248 9.306866436864796 4.8262011332420744
Si 11.559521393822227 9.141375989143135 2.1079800868216325
Si 14.115343571117476 8.341625281131815 3.522932459018235
O 6.582539475277235 9.187821980878406 6.448163720138761
O 5.292942410415576 8.501276659506283 4.2265996413942295
O 6.350177821246479 10.863260907780555 4.359981797924496
O 14.254856150520125 6.957380510660411 4.364966594096082
O 14.200969419851749 9.649541220665267 4.474123690106821
O 15.28043462959416 8.447629272281834 2.4026054826082888
O 10.227511847014137 8.717614066603446 3.068230946993205
O 7.941120961271151 8.738520680820102 4.315596792559032
O 8.072880936508833 6.983619842566405 2.0893964034187644
O 7.8743989758094095 9.663058664038441 1.603064841833793
O 11.469455856948647 8.71773492557808 0.5336572326956881
O 12.66795405236497 8.266752683700078 2.843752675887004
O 11.865824706600657 10.706790725039427 2.2691664508715386
H 5.92678866947522 8.920358077578758 7.086036793373804
H 6.553959062268354 11.635886581913283 4.879426048663551
H 4.759650514968922 8.56286414077769 3.4392186020871174
H 7.589835896696204 10.51526929376306 1.285530270380001
H 7.836707750987122 6.742843112833439 1.1980290265763545
H 11.294684299082485 11.427282219858968 2.018451610974993
H 11.382033817598614 7.769170831813625 0.5086724924057233
H 14.5315605632526 6.979225922900257 5.276709550368036
H 14.423484892080642 10.287738266659355 5.145985712424431
H 15.771380193050433 9.204539972283039 2.095430954926926
