30

O 10.182196128589974 8.448432744875245 5.769155898458136
O 9.858101316321067 7.530527185874292 7.74114282014215
O 10.12239064330592 4.409921723980997 5.475125841971177
O 10.016085396021147 5.587107186218685 3.204238547276186
H 9.508207328812993 8.908113540508577 5.178361291679631
H 9.983333779831796 5.459336759205439 7.692696952911174
H 9.106963545726076 6.188570036583324 6.298652620422133
H 10.899965098097502 6.236493141170435 6.3626335253309145
H 10.05478389322007 4.56154249633912 4.50868514139391
H 10.120211296342545 3.48913839205212 5.781344125389259
H 10.32793619708325 6.474918709877187 3.3554056942994697
C 9.908556826257174 8.59192735846326 7.020677258671903
C 9.978674718238263 6.232779145978074 6.94206944958464
H 10.059466336506162 5.939400369295881 1.1733375197488303
H 11.491676471391877 5.0973450865472305 1.7603063291066807
H 9.878175499736265 4.267352816123451 1.6797433244954714
C 10.402503211955807 5.188078902581165 1.872193799855607
H 8.800653338573188 9.926347693475053 8.203515032914865
H 10.501427831272665 9.908222209534543 8.457781521542252
C 9.755243220079334 9.907188068081053 7.672574058491559
C 9.924216049003638 11.108324982405842 6.741215756234223
H 9.102455301904435 11.14529576938617 6.025165526708059
H 10.846436983784546 11.007474851001547 6.158302526267476
C 9.957237803215449 12.436997122057427 7.5313777071972625
H 9.09487295719576 12.47271251224811 8.174196725294577
H 10.832457555876626 12.463459043556648 8.164399550454217
C 9.988806435418212 13.70907460168426 6.672087623124794
H 9.100633201009 13.787142774870805 6.034650031102036
H 10.86450471053549 13.67882947755169 6.008603346944582
H 10.054787092598506 14.600413931720656 7.314937278851861
