51

O 10.189726266546627 8.429238127344062 5.782922678729361
O 9.831515453891056 7.538405144653352 7.744238826948729
O 10.122985117240505 4.412198198996879 5.4778106268771385
O 10.016820979108266 5.566209090388539 3.2051309496771245
H 9.593156072768721 8.87863872311679 5.144779688679831
H 9.935532188813527 5.243278758023699 7.5772550699157755
H 9.095174380631953 6.169875771376601 6.2422290398501845
H 10.924146337761274 6.24347546321747 6.3401908547564
H 10.053758839553366 4.625514156314841 4.5079098122600065
H 10.076647918423449 3.2584321275864108 7.181036711039494
H 10.877418947152362 2.461474153355308 5.741529936936047
H 9.097439178497858 2.619401246964164 5.845557478404435
H 10.318892553067101 6.4678774926628035 3.363982384951312
C 9.86195030059145 8.576830528213085 7.069897938672304
C 10.000372761473914 5.7996373036186535 6.637912198266932
C 10.046432758137906 3.085413884218696 6.083884955926363
H 10.059054229200283 5.93969757957468 1.1744420769874506
H 11.491852292375155 5.097321592573773 1.7603139135711494
H 9.878720588131708 4.266674300763631 1.6775179202580248
C 10.403366736889575 5.185108006862439 1.8698705271623388
H 8.800097599742237 9.928798283153826 8.203083788581033
H 10.501585551064121 9.909526436431142 8.457354139266037
C 9.753252433359588 9.907246285327355 7.682221232122711
H 9.895308534569331 10.76963789681719 7.04486643365907
Al 8.412266034822906 8.510864857326075 2.7099359265738423
Si 6.574516575207248 9.306866436864796 4.8262011332420744
Si 11.559521393822227 9.141375989143135 2.1079800868216325
Si 14.115343571117476 8.341625281131815 3.522932459018235
O 6.582539475277235 9.187821980878406 6.448163720138761
O 5.292942410415576 8.501276659506283 4.2265996413942295
O 6.350177821246479 10.863260907780555 4.359981797924496
O 14.254856150520125 6.957380510660411 4.364966594096082
O 14.200969419851749 9.649541220665267 4.474123690106821
O 15.28043462959416 8.447629272281834 2.4026054826082888
O 10.227511847014137 8.717614066603446 3.068230946993205
O 7.941120961271151 8.738520680820102 4.315596792559032
O 8.072880936508833 6.983619842566405 2.0893964034187644
O 7.8743989758094095 9.663058664038441 1.603064841833793
O 11.469455856948647 8.71773492557808 0.5336572326956881
O 12.66795405236497 8.266752683700078 2.843752675887004
O 11.865824706600657 10.706790725039427 2.2691664508715386
H 5.92678866947522 8.920358077578758 7.086036793373804
H 6.553959062268354 11.635886581913283 4.879426048663551
H 4.759650514968922 8.56286414077769 3.4392186020871174
H 7.589835896696204 10.51526929376306 1.285530270380001
H 7.836707750987122 6.742843112833439 1.1980290265763545
H 11.294684299082485 11.427282219858968 2.018451610974993
H 11.382033817598614 7.769170831813625 0.5086724924057233
H 14.5315605632526 6.979225922900257 5.276709550368036
H 14.423484892080642 10.287738266659355 5.145985712424431
H 15.771380193050433 9.204539972283039 2.095430954926926
