33

O 10.227493881824575 8.476431823000128 5.739547496524035
O 9.855019684798364 7.565664590933538 7.74223850976952
O 10.122111332502456 4.411298510606148 5.475416525002531
O 10.077009304534341 5.660397244508386 3.29237180810635
H 9.551786620072944 8.934255803948744 5.178930197320228
H 9.990043773937316 5.303065324113539 7.54825256794115
H 9.056194357788307 6.116361497802351 6.2067170109055985
H 10.899786884420687 6.234436108879346 6.227559571637055
H 10.06054052901425 4.698027047663128 4.506626984029806
H 10.120910257190115 3.4914017912812 5.785458723790305
H 10.34679143542428 6.597440058419641 3.341106727054248
C 9.860564620742068 8.589078225499593 7.041340384703322
C 9.99277448256023 5.803268831366554 6.605255054691978
H 10.204076659973294 5.928636699474735 1.2073269960899553
H 11.540699799923102 4.983386203514106 1.8976069546440648
H 9.876644630614 4.2773265066584765 1.8018151975312486
C 10.462577777884663 5.180284522932833 1.9503272182060896
H 8.69228133927643 9.958520328685065 8.148107311592911
H 10.366002574971237 9.908254161170666 8.465514749188277
C 9.656924477984317 9.91968734183156 7.659125715504121
C 9.910765977718246 11.1094100024166 6.733614753675481
H 9.10748238860331 11.17331524945099 5.988760358219854
H 10.839013195076863 10.998344944880515 6.161032207003358
C 9.95294092046572 12.437869505345587 7.522046978778158
H 9.094540452220613 12.474140095034358 8.173575242979611
H 10.831337096887623 12.460702403997022 8.162999661231877
C 9.991520902238607 13.712868330829304 6.6720246219228665
H 9.100299975527117 13.782248629451738 6.034109488087803
H 10.864249488719096 13.66360190797243 5.992045624306706
C 10.099540589328623 14.964588493254539 7.56248705145181
H 9.241260534910511 14.982560522957982 8.254406850579418
H 11.012062858091408 14.962276664845792 8.169594780422969
H 10.073612869711239 15.883440733512598 6.962634727231047
