30

O 10.141642209252293 8.48999113795827 5.7178701403548065
O 9.790241108359309 7.51069606890266 7.696411893623714
O 10.12296504570416 4.377569175693282 5.47405096645211
O 10.016445057800217 5.566788851913032 3.2043233022153594
H 10.165666166786918 8.733407971445699 4.442856195441321
H 9.986444171679068 5.460078930947989 7.691855097926985
H 9.103486252388194 6.15827627233231 6.295246662528295
H 10.881715235894555 6.2992342536268495 6.3811907873398965
H 10.027342879600548 4.459900893355859 4.5084768597909
H 10.108110832520392 3.4765161048901074 5.784042157709248
H 10.321974669227192 6.46547364777426 3.365290218974692
C 9.85736077208675 8.591164821048164 6.937857319865365
C 9.970016725739086 6.240045180780841 6.943935079532881
H 10.059135867321332 5.939353459843103 1.1733111068591378
H 11.491868117192462 5.097158119255812 1.760001009480214
H 9.878758056099008 4.267216687114868 1.6775377283477988
C 10.402886402947118 5.186954084452099 1.871248032223238
H 8.780283490804328 9.909412245257734 8.188369873754343
H 10.44076057659035 9.844360423589926 8.426011704370733
C 9.713398705339538 9.894852540937844 7.620329077071442
C 9.91875436016582 11.11028008380289 6.739072521777585
H 9.1052470593831 11.161793964249625 6.009331898640355
H 10.835893444858906 11.012054934966777 6.160309805190324
C 9.956898012278973 12.435456697157806 7.532191397120565
H 9.094661740036091 12.4732592663504 8.174647131394526
H 10.832201653401587 12.465847197074197 8.164699112328803
C 9.988629529982049 13.708791272228092 6.672320619517615
H 9.100516102958588 13.787022997992448 6.034783490910018
H 10.864636436150263 13.678762215237013 6.008959542759279
H 10.054745128296679 14.600479230528304 7.31490450698345
