27

O 10.125504944918065 8.483618675251773 5.737093503118259
O 9.789232350651599 7.508833119873195 7.6986051133111735
O 10.126052456146803 4.375195501864978 5.474393066572275
O 10.016401895351404 5.566858576795542 3.204253007394002
H 10.229590505702939 8.792327688984992 4.120544015816463
H 9.987122381190131 5.460697152866399 7.691067066520518
H 9.104775507090158 6.1584102433029475 6.294007134710032
H 10.881260614908593 6.299525857324745 6.380785758453328
H 10.036581176046381 4.441174150980697 4.510492472559427
H 10.07110744229799 3.26547093824291 7.1849132526013015
H 10.895208479978878 2.432986227662839 5.817512983627128
H 9.100231706217617 2.5905927667824384 5.872568326060927
H 10.321944555461862 6.465146241398146 3.3659863406505757
C 9.869913993350556 8.595075298933859 6.939697785832709
C 9.969668922876224 6.246490585480056 6.945330611747217
C 10.050311802537268 3.08542533573785 6.088486795985099
H 10.059223825057684 5.9392422159881955 1.1731001731471047
H 11.4918043420114 5.097213146706955 1.7597077165044444
H 9.878782308643311 4.267297194458141 1.6775975829098888
C 10.402809563981558 5.18719401976017 1.8714558831581412
H 8.816473786704309 9.91015866539526 8.223294472993937
H 10.543633210822323 9.844612763804838 8.429830016639295
C 9.757040325522127 9.901230014367274 7.673635058015433
C 9.923537118189758 11.093919328683087 6.737931935283402
H 9.098667522436417 11.157074928466084 6.032765839623322
H 10.841683318139717 11.003379006323174 6.15338634920582
H 9.987856800963561 12.024733251608943 7.2777394038446985
