10

H 10.25284   9.10731   3.94473
O 10.23031   9.37605   5.34003 
C 10.20388  10.82993   5.54601
H 10.23281  11.08835   6.59682
H 9.35567  11.28457   5.05112
H 11.10579  11.24568   5.08306
C 9.72527   8.45959   6.40380
H 9.36611   7.57991   5.87299
H 10.54893   8.18090   7.07472
H 8.86347   8.86434   6.94033