30

O 10.189621047365991 8.427892993649241 5.781667888780574
O 9.85787289206979 7.530417343468441 7.741518971587511
O 10.122746678987241 4.410595141380797 5.475370586046571
O 10.01619724387179 5.587216617229078 3.20419937416959
H 9.587064798342569 8.872601299706968 5.136646929693025
H 9.983771748271339 5.459889068052975 7.692938964812234
H 9.107041537396384 6.188628500427945 6.298506781458831
H 10.899648153280319 6.2364797961406415 6.362206614787267
H 10.052803191305149 4.555792682510688 4.509968543382438
H 10.077080827091912 3.2599906583960463 7.180936413168115
H 10.877495802906736 2.4600127085236374 5.742804848880007
H 9.099658844671305 2.605759772946118 5.8567304010911325
H 10.327806101573959 6.474861256709187 3.355545578722154
C 9.907975974007757 8.59157568959638 7.021767136076103
C 9.978711085890803 6.23233125751352 6.941532503421149
C 10.05291347891298 3.0970907645498507 6.075299922551083
H 10.059565945261102 5.939356052174463 1.1732434850391176
H 11.491822175197793 5.097517215137479 1.7601484346047056
H 9.87813760581347 4.267404976292648 1.6798075358826112
C 10.402603489698574 5.188267396214559 1.8722300659226856
H 8.80095329467427 9.926572348188003 8.20296311924465
H 10.501993263151206 9.90842549350983 8.457023125958393
C 9.755345190357334 9.90693429688221 7.6715861914809755
C 9.92308220912594 11.100226347906679 6.729991618240688
H 9.099630871426735 11.124116201313615 6.008156154175595
H 10.837468609917005 10.99760940718945 6.139457467887054
C 9.971120304111265 12.418539246323444 7.483511791916915
H 9.106909316955317 12.488741180893415 8.16097648155331
H 10.851538609959672 12.50155645239329 8.115083353389206
H 9.931559906664765 13.280827351309197 6.817612185931801
