54

O 10.125504944918065 8.483618675251773 5.737093503118259
O 9.789232350651599 7.508833119873195 7.6986051133111735
O 10.126052456146803 4.375195501864978 5.474393066572275
O 10.016401895351404 5.566858576795542 3.204253007394002
H 10.229590505702939 8.792327688984992 4.120544015816463
H 9.987122381190131 5.460697152866399 7.691067066520518
H 9.104775507090158 6.1584102433029475 6.294007134710032
H 10.881260614908593 6.299525857324745 6.380785758453328
H 10.036581176046381 4.441174150980697 4.510492472559427
H 10.07110744229799 3.26547093824291 7.1849132526013015
H 10.895208479978878 2.432986227662839 5.817512983627128
H 9.100231706217617 2.5905927667824384 5.872568326060927
H 10.321944555461862 6.465146241398146 3.3659863406505757
C 9.869913993350556 8.595075298933859 6.939697785832709
C 9.969668922876224 6.246490585480056 6.945330611747217
C 10.050311802537268 3.08542533573785 6.088486795985099
H 10.059223825057684 5.9392422159881955 1.1731001731471047
H 11.4918043420114 5.097213146706955 1.7597077165044444
H 9.878782308643311 4.267297194458141 1.6775975829098888
C 10.402809563981558 5.18719401976017 1.8714558831581412
H 8.816473786704309 9.91015866539526 8.223294472993937
H 10.543633210822323 9.844612763804838 8.429830016639295
C 9.757040325522127 9.901230014367274 7.673635058015433
C 9.923537118189758 11.093919328683087 6.737931935283402
H 9.098667522436417 11.157074928466084 6.032765839623322
H 10.841683318139717 11.003379006323174 6.15338634920582
H 9.987856800963561 12.024733251608943 7.2777394038446985
Al 8.412266034822906 8.510864857326075 2.7099359265738423
Si 6.574516575207248 9.306866436864796 4.8262011332420744
Si 11.559521393822227 9.141375989143135 2.1079800868216325
Si 14.115343571117476 8.341625281131815 3.522932459018235
O 6.582539475277235 9.187821980878406 6.448163720138761
O 5.292942410415576 8.501276659506283 4.2265996413942295
O 6.350177821246479 10.863260907780555 4.359981797924496
O 14.254856150520125 6.957380510660411 4.364966594096082
O 14.200969419851749 9.649541220665267 4.474123690106821
O 15.28043462959416 8.447629272281834 2.4026054826082888
O 10.227511847014137 8.717614066603446 3.068230946993205
O 7.941120961271151 8.738520680820102 4.315596792559032
O 8.072880936508833 6.983619842566405 2.0893964034187644
O 7.8743989758094095 9.663058664038441 1.603064841833793
O 11.469455856948647 8.71773492557808 0.5336572326956881
O 12.66795405236497 8.266752683700078 2.843752675887004
O 11.865824706600657 10.706790725039427 2.2691664508715386
H 5.92678866947522 8.920358077578758 7.086036793373804
H 6.553959062268354 11.635886581913283 4.879426048663551
H 4.759650514968922 8.56286414077769 3.4392186020871174
H 7.589835896696204 10.51526929376306 1.285530270380001
H 7.836707750987122 6.742843112833439 1.1980290265763545
H 11.294684299082485 11.427282219858968 2.018451610974993
H 11.382033817598614 7.769170831813625 0.5086724924057233
H 14.5315605632526 6.979225922900257 5.276709550368036
H 14.423484892080642 10.287738266659355 5.145985712424431
H 15.771380193050433 9.204539972283039 2.095430954926926
