40

Al 8.412266034822906 8.510864857326075 2.7099359265738423
Si 6.574516575207248 9.306866436864796 4.8262011332420744
Si 11.559521393822227 9.141375989143135 2.1079800868216325
Si 14.115343571117476 8.341625281131815 3.522932459018235
O 6.582539475277235 9.187821980878406 6.448163720138761
O 5.292942410415576 8.501276659506283 4.2265996413942295
O 6.350177821246479 10.863260907780555 4.359981797924496
O 14.254856150520125 6.957380510660411 4.364966594096082
O 14.200969419851749 9.649541220665267 4.474123690106821
O 15.28043462959416 8.447629272281834 2.4026054826082888
O 10.227511847014137 8.717614066603446 3.068230946993205
O 7.941120961271151 8.738520680820102 4.315596792559032
O 8.072880936508833 6.983619842566405 2.0893964034187644
O 7.8743989758094095 9.663058664038441 1.603064841833793
O 11.469455856948647 8.71773492557808 0.5336572326956881
O 12.66795405236497 8.266752683700078 2.843752675887004
O 11.865824706600657 10.706790725039427 2.2691664508715386
H 5.92678866947522 8.920358077578758 7.086036793373804
H 6.553959062268354 11.635886581913283 4.879426048663551
H 4.759650514968922 8.56286414077769 3.4392186020871174
H 7.589835896696204 10.51526929376306 1.285530270380001
H 7.836707750987122 6.742843112833439 1.1980290265763545
H 11.294684299082485 11.427282219858968 2.018451610974993
H 11.382033817598614 7.769170831813625 0.5086724924057233
H 14.5315605632526 6.979225922900257 5.276709550368036
H 14.423484892080642 10.287738266659355 5.145985712424431
H 15.771380193050433 9.204539972283039 2.095430954926926
O 9.99414   9.79756   5.07450
O 10.055944284994045 7.106878101138103 4.010749796943056
H 10.51308   9.39811   4.3567
H 9.81296   6.71486   6.1638
H 10.64164   8.33588   6.50093
H 8.80720   8.21358   6.23641
H 9.08207   9.64820   4.7505
H 11.00926   5.26461   4.5208
H 9.37102   5.49352   5.18131
H 9.54479   5.13467   3.45570
H 10.49178   7.44932   3.20412
C 9.78784   7.79469   6.20321
C 10.01062   5.65062   4.30879