57

O 10.182196128589974 8.448432744875245 5.769155898458136
O 9.858101316321067 7.530527185874292 7.74114282014215
O 10.12239064330592 4.409921723980997 5.475125841971177
O 10.016085396021147 5.587107186218685 3.204238547276186
H 9.508207328812993 8.908113540508577 5.178361291679631
H 9.983333779831796 5.459336759205439 7.692696952911174
H 9.106963545726076 6.188570036583324 6.298652620422133
H 10.899965098097502 6.236493141170435 6.3626335253309145
H 10.05478389322007 4.56154249633912 4.50868514139391
H 10.120211296342545 3.48913839205212 5.781344125389259
H 10.32793619708325 6.474918709877187 3.3554056942994697
C 9.908556826257174 8.59192735846326 7.020677258671903
C 9.978674718238263 6.232779145978074 6.94206944958464
H 10.059466336506162 5.939400369295881 1.1733375197488303
H 11.491676471391877 5.0973450865472305 1.7603063291066807
H 9.878175499736265 4.267352816123451 1.6797433244954714
C 10.402503211955807 5.188078902581165 1.872193799855607
H 8.800653338573188 9.926347693475053 8.203515032914865
H 10.501427831272665 9.908222209534543 8.457781521542252
C 9.755243220079334 9.907188068081053 7.672574058491559
C 9.924216049003638 11.108324982405842 6.741215756234223
H 9.102455301904435 11.14529576938617 6.025165526708059
H 10.846436983784546 11.007474851001547 6.158302526267476
C 9.957237803215449 12.436997122057427 7.5313777071972625
H 9.09487295719576 12.47271251224811 8.174196725294577
H 10.832457555876626 12.463459043556648 8.164399550454217
C 9.988806435418212 13.70907460168426 6.672087623124794
H 9.100633201009 13.787142774870805 6.034650031102036
H 10.86450471053549 13.67882947755169 6.008603346944582
H 10.054787092598506 14.600413931720656 7.314937278851861
Al 8.412266034822906 8.510864857326075 2.7099359265738423
Si 6.574516575207248 9.306866436864796 4.8262011332420744
Si 11.559521393822227 9.141375989143135 2.1079800868216325
Si 14.115343571117476 8.341625281131815 3.522932459018235
O 6.582539475277235 9.187821980878406 6.448163720138761
O 5.292942410415576 8.501276659506283 4.2265996413942295
O 6.350177821246479 10.863260907780555 4.359981797924496
O 14.254856150520125 6.957380510660411 4.364966594096082
O 14.200969419851749 9.649541220665267 4.474123690106821
O 15.28043462959416 8.447629272281834 2.4026054826082888
O 10.227511847014137 8.717614066603446 3.068230946993205
O 7.941120961271151 8.738520680820102 4.315596792559032
O 8.072880936508833 6.983619842566405 2.0893964034187644
O 7.8743989758094095 9.663058664038441 1.603064841833793
O 11.469455856948647 8.71773492557808 0.5336572326956881
O 12.66795405236497 8.266752683700078 2.843752675887004
O 11.865824706600657 10.706790725039427 2.2691664508715386
H 5.92678866947522 8.920358077578758 7.086036793373804
H 6.553959062268354 11.635886581913283 4.879426048663551
H 4.759650514968922 8.56286414077769 3.4392186020871174
H 7.589835896696204 10.51526929376306 1.285530270380001
H 7.836707750987122 6.742843112833439 1.1980290265763545
H 11.294684299082485 11.427282219858968 2.018451610974993
H 11.382033817598614 7.769170831813625 0.5086724924057233
H 14.5315605632526 6.979225922900257 5.276709550368036
H 14.423484892080642 10.287738266659355 5.145985712424431
H 15.771380193050433 9.204539972283039 2.095430954926926
