9

H 10.624149996754394 8.708982692742358 4.365708895548594
O 11.240041226653032 8.63266317527248 5.195499860789053
O 10.399243530813814 8.76673443393097 7.334705443214136
H 8.350375148589885 8.687125541444436 6.836232678551876
H 9.236012735174638 9.600212632854728 5.565126281243541
H 9.224216012444858 7.746701585662572 5.577334988885635
C 11.338861572987094 8.683805812349881 6.501893068517166
C 9.07696194249138 8.684957733589377 6.100892647463925
H 12.339245574918536 8.528028319820399 6.806969487826578