30

O 10.19029580946626 8.475831022997273 5.694378158789797
O 9.790452512188134 7.512046573161916 7.694452162109291
O 10.124637094821667 4.3761127681685945 5.4745437512811135
O 10.016477447981703 5.5667524826701635 3.2043246469739963
H 10.189288839143922 8.781889783757913 4.466462359966755
H 9.986542261519032 5.4602875343638155 7.692014503634074
H 9.103837563102406 6.157856928900375 6.294589085428265
H 10.881579058663258 6.2990020359228795 6.38098706652501
H 10.036623954629453 4.441771447844083 4.51030315239269
H 10.075238646072215 3.261289621966651 7.18329434527896
H 10.895079060838581 2.434397468819687 5.815489001109676
H 9.100040731139053 2.5907125138174205 5.872530600728554
H 10.321935225143475 6.465512350051486 3.365341111898871
C 9.86048697691774 8.594575563115136 6.909194360480264
C 9.97019522672394 6.238970470629975 6.943398793220763
C 10.049629624889635 3.0848599522105187 6.0878582493007665
H 10.059148499348645 5.9393421158744415 1.1732599191383535
H 11.491868861713701 5.0971624369731074 1.7599481435620492
H 9.878765266508024 4.267240405760303 1.6775086948244753
C 10.402829507526159 5.187112176781103 1.8713784457021936
H 8.78681591422994 9.909051378480179 8.18369327325643
H 10.442671678426954 9.842727975558141 8.42418281437115
C 9.719414828268924 9.89289951380018 7.613516243970344
C 9.919812588119193 11.102458004172417 6.72532080043063
H 9.099294307022557 11.135247965626482 6.001889070283975
H 10.837128534300971 10.997692032744224 6.1391149100937685
C 9.971271750877717 12.41786385013683 7.483728799674847
H 9.106803197331395 12.488640840518771 8.161021043558161
H 10.851724323107103 12.501485337354271 8.115296417814987
H 9.930626836662169 13.281431478860956 6.819129492911403
