27

O 10.18673254024379 8.429590279284819 5.780650771091251
O 9.858022408712964 7.530218131986998 7.74162289189559
O 10.122429365735885 4.409919183335165 5.475116285845114
O 10.016228703013674 5.587245678468126 3.2042114498241188
H 9.543911402294546 8.91504748787695 5.181631778086623
H 9.98328010149761 5.459285511961158 7.692779886717869
H 9.106969885878128 6.1885253815193195 6.298660124958836
H 10.900006663866485 6.236404923250503 6.362689099367547
H 10.054746932026331 4.561516450738236 4.508699937871
H 10.120181703971785 3.4891353290150833 5.781330984749461
H 10.32784913568383 6.475006211412216 3.355456305975294
C 9.909959743197247 8.5902301403906 7.023420570073001
C 9.978838813082431 6.232247408089282 6.942150424708008
H 10.059451274368952 5.939397010997811 1.1733392164463325
H 11.491661108365774 5.097320638066834 1.7603086732841116
H 9.878169959611395 4.267339859099882 1.6797569596190112
C 10.402513026185247 5.1880669121594725 1.8721745833607133
H 8.800777752663885 9.926517296549102 8.202910658991161
H 10.501904117332526 9.908430558268826 8.457055397177506
C 9.755301424090241 9.90677301970148 7.671683707893812
C 9.923005695855773 11.10013608241471 6.7299407944759055
H 9.099592116721421 11.124099310187093 6.0080188667471575
H 10.837421820398806 10.997674403699184 6.139386233138955
C 9.9696756413342 12.4202671611487 7.480612139159722
H 9.106780800513073 12.488566331798859 8.160646280253136
H 10.851254423099927 12.502249220571873 8.113979487587072
H 9.910729549889826 13.278832179126969 6.799129801680508
