57

O 10.228402727543624 8.47572346253412 5.738288848543919
O 9.857434277752798 7.564155101619511 7.742127243030751
O 10.122037095124272 4.409447260218541 5.472892857498687
O 10.090065596688625 5.644265416427395 3.246370666074409
H 9.548097209309054 8.94608065958252 5.1798685360296615
H 9.92755589678301 5.284658009374837 7.632103214574927
H 9.092372418254946 6.174790059965298 6.247713949118777
H 10.923473798042846 6.220087565600306 6.3413276312274105
H 10.054269680059345 4.7590469685601215 4.513812851327663
H 9.509580637795649 3.6575377707560763 5.61566407625553
H 10.304364160819201 6.592609016828502 3.3493060883217267
C 9.912763272160818 8.582974501297551 7.019493184739746
C 9.986951054406935 5.922702517763953 6.750862572145034
H 10.205799242820571 5.909047528315868 1.1802166647780565
H 11.541172161297007 4.982025553398763 1.8955097657324387
H 9.877633588038142 4.275793933468678 1.7975240532340273
C 10.466099774435913 5.177234499415533 1.9391150419372876
H 8.779794054990255 9.909821129156118 8.191774856157346
H 10.45240340202159 9.93975573882864 8.43470122755869
C 9.721580395353596 9.90957860478981 7.640965436686137
C 9.921233073718144 11.112237243256406 6.7405960399480325
H 9.10112361017185 11.170713583206265 6.023454584057062
H 10.835617323124424 11.010716000758267 6.15911128246344
C 9.979754379092807 12.451052052602146 7.53663885556446
H 9.098776234265507 12.472723163977653 8.173307442523136
H 10.863633630816977 12.480531028386075 8.161221899335464
C 9.990864169776112 13.711353068198784 6.67148432107694
H 9.100678583755133 13.786012475418202 6.034698726847039
H 10.87555771331179 13.685511926030722 6.008654934831764
H 10.054609120156625 14.600946040291618 7.314589670532486
Al 8.412266034822906 8.510864857326075 2.7099359265738423
Si 6.574516575207248 9.306866436864796 4.8262011332420744
Si 11.559521393822227 9.141375989143135 2.1079800868216325
Si 14.115343571117476 8.341625281131815 3.522932459018235
O 6.582539475277235 9.187821980878406 6.448163720138761
O 5.292942410415576 8.501276659506283 4.2265996413942295
O 6.350177821246479 10.863260907780555 4.359981797924496
O 14.254856150520125 6.957380510660411 4.364966594096082
O 14.200969419851749 9.649541220665267 4.474123690106821
O 15.28043462959416 8.447629272281834 2.4026054826082888
O 10.227511847014137 8.717614066603446 3.068230946993205
O 7.941120961271151 8.738520680820102 4.315596792559032
O 8.072880936508833 6.983619842566405 2.0893964034187644
O 7.8743989758094095 9.663058664038441 1.603064841833793
O 11.469455856948647 8.71773492557808 0.5336572326956881
O 12.66795405236497 8.266752683700078 2.843752675887004
O 11.865824706600657 10.706790725039427 2.2691664508715386
H 5.92678866947522 8.920358077578758 7.086036793373804
H 6.553959062268354 11.635886581913283 4.879426048663551
H 4.759650514968922 8.56286414077769 3.4392186020871174
H 7.589835896696204 10.51526929376306 1.285530270380001
H 7.836707750987122 6.742843112833439 1.1980290265763545
H 11.294684299082485 11.427282219858968 2.018451610974993
H 11.382033817598614 7.769170831813625 0.5086724924057233
H 14.5315605632526 6.979225922900257 5.276709550368036
H 14.423484892080642 10.287738266659355 5.145985712424431
H 15.771380193050433 9.204539972283039 2.095430954926926
