27

O 10.190628955692226 8.454495423769622 5.693860586849534
O 9.790407276163068 7.512216186091757 7.694821529407672
O 10.124623746973331 4.376115996859844 5.474543710571971
O 10.016479192089019 5.566748424235365 3.2043329727630097
H 10.186403967518618 8.719646756037445 4.4637573535064545
H 9.986436004815872 5.460232399268223 7.6921624993553355
H 9.103851054660696 6.157749245239265 6.294626637844602
H 10.881653883466042 6.29876054705668 6.38116418242331
H 10.036654863994057 4.441695262269155 4.510307993852652
H 10.075358032750138 3.261146527317528 7.183226012306027
H 10.895068361742007 2.4342750661834547 5.8155558874183875
H 9.10004969180345 2.590693553831737 5.872516432583095
H 10.321986776387469 6.465470040229106 3.365237539531329
C 9.859843954964937 8.593310956564357 6.908278962946849
C 9.970246615743992 6.238571872266428 6.943541617770442
C 10.04966533122183 3.0847901616895923 6.087880015128437
H 10.05914996219999 5.939315595008955 1.1732487323894434
H 11.491864001902966 5.0971375438547035 1.7599429843771324
H 9.878766629367776 4.26719317498914 1.6775456645759415
C 10.402845977454685 5.187063401177188 1.8713179293977935
H 8.785243592466944 9.90834542356055 8.184141512363748
H 10.441780013814432 9.843281307664528 8.42385552820746
C 9.714937337398975 9.895551064215443 7.614707945475034
C 9.91895860374989 11.099871335047146 6.72520940965598
H 9.101141267749876 11.189878457463644 6.006939037143267
H 10.84600819222357 11.00688166467445 6.155394740377986
H 9.987649630507246 12.02388475017646 7.278459168583274
