27

O 10.227739043029407 8.47614218046584 5.739664709317711
O 9.85491653791102 7.564682021980754 7.742392992800686
O 10.123851810009949 4.411426198796385 5.474157195169704
O 10.058999033899088 5.614660671334372 3.2927265703689574
H 9.552000473146883 8.93329441496179 5.177931119010743
H 9.939030396211802 5.263134221828318 7.626515278165789
H 9.07197877492381 6.105852191555473 6.230456431719824
H 10.900827325152601 6.221164807051953 6.343269656865054
H 10.037129060562263 4.709195500254967 4.5110984776872955
H 9.969560585502165 3.48763677535009 5.668626960879155
H 10.317297628685067 6.548840301618052 3.44835379694053
C 9.8626825551628 8.587741173671656 7.036866694806411
C 9.981459448037109 5.857864328522775 6.72052111549392
H 10.140924225979347 5.959425379952854 1.266940685392711
H 11.533204834405245 5.000581382093131 1.8857355617806042
H 9.876999587994375 4.276719392091038 1.7981095891927568
C 10.452393246741261 5.183805124283675 1.9529570652437307
H 8.695647805031706 9.949716827620922 8.142915272022712
H 10.366993990449892 9.908832124050763 8.46473710044044
C 9.659591567675225 9.917874004488132 7.659142212263876
C 9.915415051896453 11.101290948618852 6.729358891597334
H 9.109074343969048 11.142864025378763 5.990215131353874
H 10.847869281249165 10.989843573632143 6.16528642630034
C 9.969143828175449 12.420871510514623 7.480336206776036
H 9.106660966626105 12.489101543924223 8.160655958451693
H 10.851146642145855 12.502058336047014 8.113856612666053
H 9.91123551032278 13.27967543550246 6.799565804435989
