18

O 10.126479758652795 8.48677851219227 5.7377977311444
O 9.789030891244003 7.5098702132367645 7.6990959512029224
O 10.123130817390846 4.377391004742764 5.474241161091429
O 10.01642086732031 5.566855109528931 3.204294008657154
H 10.22669151814728 8.793327280900936 4.114572604072308
H 9.986463648976056 5.460303373084425 7.691547931943413
H 9.103988541686572 6.158547018449085 6.294996609851458
H 10.881513361288304 6.299789223988065 6.381097761796077
H 10.036816154919256 4.444081816550658 4.510214359212959
H 10.104755842529295 3.4770021981196098 5.787814227506994
H 10.322045890743425 6.465114926509624 3.3658061080355934
C 9.876991904532614 8.584562357842866 6.941333331426962
C 9.969513896655286 6.243984523692244 6.945376876014234
H 10.05915897080942 5.939266280822911 1.1732041443201404
H 11.491948521329272 5.097063506806124 1.7600314162944746
H 9.878784590590405 4.26724477845124 1.677595141428035
C 10.402999048594108 5.187009171150152 1.8713171022838306
H 9.837283257895294 9.510270734728758 7.527828455082524
