10

H 10.34196   9.56302   4.37875
O 10.58940   9.90138   5.38197 
C 10.25828  11.09391   5.50586
H 10.18428  11.31910   6.56891
H 9.33092  11.37273   5.01019
H 11.09146  11.68815   5.09227
C 8.66720   7.84539   5.26553
H 8.30776   6.81815   5.23285
H 9.68805   7.96712   4.94077
H 8.53170   8.32110   6.21837