54

O 10.190259873213598 8.475797214790598 5.694441167953038
O 9.790435391815713 7.5119969627781975 7.694460848647669
O 10.122960866074642 4.377564493122828 5.474047456927433
O 10.01650909399272 5.566746974450188 3.204274602232016
H 10.180910883911393 8.719496531341893 4.4578245119374325
H 9.98634583835257 5.45995438425739 7.69203003398694
H 9.103571396769851 6.157303178295657 6.295055568325194
H 10.881792666878427 6.298807562190124 6.381324559089717
H 10.02735143723739 4.459839416390922 4.508455127865532
H 10.10801472464944 3.4765351800357367 5.7841278893675545
H 10.322010236418464 6.465494964701715 3.365212701619732
C 9.86039749399045 8.594044164977445 6.908755824016994
C 9.970153284926578 6.239028394562716 6.9439883805450675
H 10.060205055549808 5.939263107398525 1.173214687115967
H 11.505332066342902 5.085210583258251 1.7623609467849386
H 9.878753786163404 4.267293007952985 1.6775755590189214
C 10.405223762368074 5.1860803507847395 1.8713122302520036
H 8.787536218062373 9.908890735433989 8.183451723347364
H 10.443337885135126 9.842648349681665 8.423656875188007
C 9.720211223071413 9.89255936538811 7.613137214054229
C 9.919760332522145 11.10202221710575 6.725715539991822
H 9.097215020232547 11.131142415932562 6.00535983900971
H 10.836973977986899 10.997614136786922 6.1389552312990725
C 9.970784841327886 12.419172449416225 7.481308837279584
H 9.106546261669644 12.489301174626004 8.160143423463952
H 10.85129602787583 12.501732816006653 8.114864669133453
H 9.935009648881802 13.279541574710818 6.8000155856218845
Al 8.412266034822906 8.510864857326075 2.7099359265738423
Si 6.574516575207248 9.306866436864796 4.8262011332420744
Si 11.559521393822227 9.141375989143135 2.1079800868216325
Si 14.115343571117476 8.341625281131815 3.522932459018235
O 6.582539475277235 9.187821980878406 6.448163720138761
O 5.292942410415576 8.501276659506283 4.2265996413942295
O 6.350177821246479 10.863260907780555 4.359981797924496
O 14.254856150520125 6.957380510660411 4.364966594096082
O 14.200969419851749 9.649541220665267 4.474123690106821
O 15.28043462959416 8.447629272281834 2.4026054826082888
O 10.227511847014137 8.717614066603446 3.068230946993205
O 7.941120961271151 8.738520680820102 4.315596792559032
O 8.072880936508833 6.983619842566405 2.0893964034187644
O 7.8743989758094095 9.663058664038441 1.603064841833793
O 11.469455856948647 8.71773492557808 0.5336572326956881
O 12.66795405236497 8.266752683700078 2.843752675887004
O 11.865824706600657 10.706790725039427 2.2691664508715386
H 5.92678866947522 8.920358077578758 7.086036793373804
H 6.553959062268354 11.635886581913283 4.879426048663551
H 4.759650514968922 8.56286414077769 3.4392186020871174
H 7.589835896696204 10.51526929376306 1.285530270380001
H 7.836707750987122 6.742843112833439 1.1980290265763545
H 11.294684299082485 11.427282219858968 2.018451610974993
H 11.382033817598614 7.769170831813625 0.5086724924057233
H 14.5315605632526 6.979225922900257 5.276709550368036
H 14.423484892080642 10.287738266659355 5.145985712424431
H 15.771380193050433 9.204539972283039 2.095430954926926
