24

O 10.227458798472394 8.47585256336923 5.739185402892644
O 9.856137402937138 7.5305826660923225 7.740845526434659
O 10.122589405006677 4.408718678208811 5.473194615115218
O 10.090395301143671 5.645018870373273 3.246995066224043
H 9.547785881835313 8.945912581752735 5.178681573733826
H 9.924469955388743 5.339813125087846 7.637868443143426
H 9.09546780197911 6.167790055619575 6.247033128439247
H 10.915485132819175 6.216702708356868 6.350189645951157
H 10.057207346018087 4.735998899848627 4.519746183033052
H 9.61877378607743 3.5793140238467775 5.605675632329418
H 10.320355345755074 6.594597361537501 3.363330424836654
C 9.861050013514141 8.557860356504124 7.014373720827387
C 9.98340770187121 5.9879754303227255 6.803790019706202
H 10.206077856631321 5.9205781723120925 1.1843524759825326
H 11.539476610081541 4.970669569822177 1.8878424109533176
H 9.876890884826716 4.276727980122839 1.799793694004764
C 10.465613653949646 5.178847646805534 1.9391804565330464
H 8.695094010449587 9.947619231613963 8.142263120091018
H 10.367122112394478 9.906756063676234 8.463909919579965
C 9.657924549666472 9.900366846476084 7.658327466677236
C 9.910808259318069 11.091703996702371 6.728283738328526
H 9.100215996752992 11.1896829452704 6.006603255270422
H 10.840003255183499 10.99759514892463 6.159754176529834
H 9.986146042647192 12.023230425400891 7.27730147097212
