27

O 10.254064262787557 8.59381554364816 5.775904483139239
O 9.887592634014617 7.612219858005184 7.781146522788242
O 10.121660762118278 4.411516963193749 5.472087976394418
O 10.126453249092878 5.823558607546537 3.3353203390524415
H 9.53608345504183 8.926118848823817 5.190813199690295
H 10.035008306309832 5.3533957249171635 7.356105397687025
H 9.081171068004371 6.101304171834493 6.058021901123801
H 10.89373797482418 6.222081414467424 6.075698731760637
H 10.184425207710568 5.125603830993055 4.037359193670281
H 10.084690202155823 3.2432363099796713 7.199427697127481
H 10.900168658018437 2.55660163431094 5.69469990008023
H 9.10044466448168 2.6200321641290065 5.846113611678339
H 10.385451607839775 7.431950617567107 3.1560266529144854
C 9.86549378611467 8.60642375517512 7.08209910617586
C 10.009434831315215 5.586584236106042 6.282762998109498
C 10.052741434402686 3.105333458667828 6.095061475006838
H 10.170221983403374 5.927918115981384 1.3064596601568503
H 11.443464865166666 4.904467601494765 1.9428208557601074
H 9.770502789707098 4.308831463110969 1.8933655361092512
C 10.392936958068214 5.183618698593055 2.038886700884766
H 8.782010872820136 10.038970204012875 8.20590238779387
H 10.471552981583628 9.956813492532245 8.43442961338679
C 9.715277979659414 9.959644924519063 7.674148158587979
C 9.921157098478423 11.104592236869104 6.722504452676181
H 9.107415493039712 11.176362163573506 5.9893603758373635
H 10.851586533540832 10.993849616606642 6.164928754776391
H 9.987309139376283 12.025962530782472 7.274918180610538
