21

O 10.126061496397762 8.484267976304066 5.737082000125998
O 9.78902609848885 7.50766036642737 7.6982064464600946
O 10.123070274089702 4.377200877665606 5.4741642097786345
O 10.016466164698585 5.566826083140436 3.204205269138799
H 10.229688027965201 8.792432369552811 4.120276935965968
H 9.987045004137329 5.460141248648862 7.691170050915378
H 9.10458265622185 6.15743956460226 6.294491018633984
H 10.881483858545934 6.299479158412855 6.3809896745183154
H 10.03671039675177 4.443940734754486 4.5102372061695135
H 10.104170695695053 3.4773537145569993 5.789204055177576
H 10.32201349891235 6.465103545960739 3.3659041879289893
C 9.860184716521239 8.59025526762705 6.93812454376662
C 9.969961740085125 6.245757785241146 6.945715128733458
H 10.060286740890565 5.939118762644393 1.172981491967155
H 11.5053543004725 5.0851490723851605 1.762313797899525
H 9.878733598243512 4.267314182132591 1.677538246056097
C 10.405035872434038 5.186149922044978 1.8715015129010104
H 8.780176610481437 9.910910062895601 8.201398323961744
H 10.481497696213536 9.842866184486608 8.437557632798777
C 9.722460871830755 9.866796827635433 7.677318144111333
H 9.900075527135161 10.743518504467433 7.050951191149085
