24

O 10.18733367554827 8.429600515428142 5.780872457083633
O 9.858020632817219 7.530345319936623 7.741613164768394
O 10.122746535136457 4.411877189267813 5.474084622652157
O 10.016080097410425 5.587167994194324 3.2041738348723214
H 9.547569706860795 8.909944693922899 5.178697188811688
H 9.983343844045722 5.459283678713316 7.692738582980706
H 9.10700299231023 6.188475889821913 6.298681062266981
H 10.900070411253012 6.236394343926977 6.362760541386105
H 10.051587226580766 4.567386822933972 4.507593271187086
H 10.047653771527692 3.4985798392664096 5.723130733374521
H 10.327921679794796 6.474946317262916 3.3553870148240117
C 9.909945008440767 8.590547199305327 7.023156477784063
C 9.97873321711522 6.232476946120752 6.942285792053663
H 10.059489664239264 5.939391517565783 1.1733216959402626
H 11.491681469431919 5.097305968931279 1.760324972898096
H 9.878231701859438 4.267263436528609 1.6795669671156201
C 10.402540547485534 5.188041767508242 1.8721137520494044
H 8.800645468909261 9.926239055741377 8.203637991105142
H 10.502297957165075 9.908880096045905 8.456623649481134
C 9.754626519113524 9.908155749515727 7.6724732339702335
C 9.921300712395379 11.097624900584602 6.728365354490075
H 9.099417953415148 11.187506282158942 6.009668639906239
H 10.846666316353641 11.00717844523935 6.1560546179589934
H 9.98766276539636 12.024146042492717 7.277598395226116
