63

O 10.243709509875936 8.567922364186598 5.738856962339674
O 9.887738668447831 7.612144160939582 7.780980491774081
O 10.121649102642756 4.411621269850218 5.471987855613276
O 10.12638078628126 5.824116559335899 3.3351523448485523
H 9.510272746741032 8.946636874310265 5.198222168638573
H 10.034297825754978 5.354945766494043 7.357102971283238
H 9.081151262247515 6.101328626324313 6.05792157395712
H 10.89370769196065 6.221987371219092 6.075642191998718
H 10.188477877732495 5.13766924739664 4.033382831357114
H 10.077022082944664 3.257991976666674 7.18473135041681
H 10.900266017256834 2.5566070666854825 5.694919605457026
H 9.100175397592071 2.6199052187982517 5.845708386554859
H 10.425078393283185 7.477540672779477 3.229478419271259
C 9.872015708691267 8.599103002576284 7.075710904801924
C 10.009334347893818 5.586119154071633 6.282703160121511
C 10.051547953826642 3.1056341565072243 6.092520797638252
H 10.170151029173017 5.928114314161394 1.3066161235732288
H 11.443554509376021 4.904516775699443 1.9426421359635584
H 9.770501029038597 4.3089314591052785 1.8934048727696307
C 10.393086223921634 5.1840115036095815 2.039224706432776
H 8.780434894049463 10.037948209838918 8.202169863903885
H 10.471474674037395 9.956281844634221 8.433543686947479
C 9.717376165404414 9.954947276172195 7.668314258199718
C 9.917207434249171 11.114013756635458 6.720676290377822
H 9.099563313590757 11.155880680100847 5.980763656077278
H 10.838059974882233 11.00164134794683 6.147004272255516
C 9.967336299657028 12.427432087877046 7.4904043422744095
H 9.099118227983054 12.468982522652812 8.169240373371986
H 10.838533557779199 12.44835156697964 8.134964034965765
C 9.992922984231825 13.717675776393044 6.670612106984471
H 9.100884703806274 13.784728805834016 6.033599775861849
H 10.863064473011482 13.665487265132196 5.989968029476434
C 10.099684172528889 14.96463274060099 7.562525766265953
H 9.241260413014107 14.982511966910334 8.254151737435434
H 11.01212968546291 14.962230561742773 8.169523247235928
H 10.073833275903604 15.88346199365118 6.962469309844156
Al 8.412266034822906 8.510864857326075 2.7099359265738423
Si 6.574516575207248 9.306866436864796 4.8262011332420744
Si 11.559521393822227 9.141375989143135 2.1079800868216325
Si 14.115343571117476 8.341625281131815 3.522932459018235
O 6.582539475277235 9.187821980878406 6.448163720138761
O 5.292942410415576 8.501276659506283 4.2265996413942295
O 6.350177821246479 10.863260907780555 4.359981797924496
O 14.254856150520125 6.957380510660411 4.364966594096082
O 14.200969419851749 9.649541220665267 4.474123690106821
O 15.28043462959416 8.447629272281834 2.4026054826082888
O 10.227511847014137 8.717614066603446 3.068230946993205
O 7.941120961271151 8.738520680820102 4.315596792559032
O 8.072880936508833 6.983619842566405 2.0893964034187644
O 7.8743989758094095 9.663058664038441 1.603064841833793
O 11.469455856948647 8.71773492557808 0.5336572326956881
O 12.66795405236497 8.266752683700078 2.843752675887004
O 11.865824706600657 10.706790725039427 2.2691664508715386
H 5.92678866947522 8.920358077578758 7.086036793373804
H 6.553959062268354 11.635886581913283 4.879426048663551
H 4.759650514968922 8.56286414077769 3.4392186020871174
H 7.589835896696204 10.51526929376306 1.285530270380001
H 7.836707750987122 6.742843112833439 1.1980290265763545
H 11.294684299082485 11.427282219858968 2.018451610974993
H 11.382033817598614 7.769170831813625 0.5086724924057233
H 14.5315605632526 6.979225922900257 5.276709550368036
H 14.423484892080642 10.287738266659355 5.145985712424431
H 15.771380193050433 9.204539972283039 2.095430954926926
