57

O 10.125444474277034 8.483550463392508 5.737059009623111
O 9.789329491061412 7.508781276203151 7.698457511833436
O 10.123096143286084 4.3773301578125725 5.474108566752505
O 10.016389722525014 5.566867691010923 3.204245756869122
H 10.22964617290568 8.792290528156 4.120644553778137
H 9.986932185890682 5.460335902969477 7.6911056514005045
H 9.104469543539741 6.158019561030383 6.294475105121329
H 10.881462849225999 6.299512383664346 6.380931735458457
H 10.03672884859066 4.444117456973411 4.510167034124939
H 10.10707818465324 3.47670852242748 5.785380377798503
H 10.321955623243724 6.46512760270887 3.365958548992155
C 9.8704113665672 8.595372516109077 6.939581174888254
C 9.969737742228148 6.246458894326802 6.945714237454049
H 10.059110862965417 5.939258408485114 1.1731187150753473
H 11.491879050870706 5.097057285824952 1.7599359813221729
H 9.878762936618882 4.267271674986702 1.6774520189982118
C 10.40287104273607 5.187134510353155 1.8714130552974997
H 8.817766502221414 9.910606160828413 8.219007692116074
H 10.543406650319216 9.844575177663472 8.429214458753568
C 9.758141485231851 9.900003560849273 7.670774588688578
C 9.920065540611011 11.10721953129052 6.742879398218714
H 9.100423910854955 11.12358346979992 6.009690490868639
H 10.835367969419751 11.011207815816194 6.159727795575316
C 9.953625888702568 12.43545302126101 7.5292670148828345
H 9.094300209908369 12.473426693341908 8.174686014169712
H 10.831127622767756 12.46548584537429 8.164425470243994
C 9.988406233509327 13.709111208445293 6.672354100564923
H 9.10072688631254 13.787524285197794 6.034466446168224
H 10.865032520345686 13.678611555498199 6.010022373614269
H 10.054669483791614 14.600581753016868 7.314882154623545
Al 8.412266034822906 8.510864857326075 2.7099359265738423
Si 6.574516575207248 9.306866436864796 4.8262011332420744
Si 11.559521393822227 9.141375989143135 2.1079800868216325
Si 14.115343571117476 8.341625281131815 3.522932459018235
O 6.582539475277235 9.187821980878406 6.448163720138761
O 5.292942410415576 8.501276659506283 4.2265996413942295
O 6.350177821246479 10.863260907780555 4.359981797924496
O 14.254856150520125 6.957380510660411 4.364966594096082
O 14.200969419851749 9.649541220665267 4.474123690106821
O 15.28043462959416 8.447629272281834 2.4026054826082888
O 10.227511847014137 8.717614066603446 3.068230946993205
O 7.941120961271151 8.738520680820102 4.315596792559032
O 8.072880936508833 6.983619842566405 2.0893964034187644
O 7.8743989758094095 9.663058664038441 1.603064841833793
O 11.469455856948647 8.71773492557808 0.5336572326956881
O 12.66795405236497 8.266752683700078 2.843752675887004
O 11.865824706600657 10.706790725039427 2.2691664508715386
H 5.92678866947522 8.920358077578758 7.086036793373804
H 6.553959062268354 11.635886581913283 4.879426048663551
H 4.759650514968922 8.56286414077769 3.4392186020871174
H 7.589835896696204 10.51526929376306 1.285530270380001
H 7.836707750987122 6.742843112833439 1.1980290265763545
H 11.294684299082485 11.427282219858968 2.018451610974993
H 11.382033817598614 7.769170831813625 0.5086724924057233
H 14.5315605632526 6.979225922900257 5.276709550368036
H 14.423484892080642 10.287738266659355 5.145985712424431
H 15.771380193050433 9.204539972283039 2.095430954926926
