51

O 10.207829530148791 8.677088648586254 5.780495785124345
O 9.885856695491931 7.6132021835674974 7.777582281404541
O 10.121658968814321 4.411611890451827 5.472117709528815
O 10.126425055995252 5.823587579761024 3.3353791314754893
H 9.472652723556935 8.988899287676992 5.164628068244017
H 10.034153546589888 5.3556530843337615 7.357396001040404
H 9.0810289890825 6.1013637701159595 6.057826097334819
H 10.893792337581353 6.22237279002925 6.075724981861763
H 10.184614705167347 5.12551437813798 4.0373082988630165
H 10.08467589318652 3.243229158429934 7.19947711054712
H 10.900126156823951 2.5566060363960994 5.694678242989774
H 9.10037473278369 2.620214043678584 5.8460918175073315
H 10.38548351236484 7.431993854238799 3.1563727133863693
C 9.85789721658694 8.617092527042773 7.082515647643458
C 10.009213803032571 5.586992731660085 6.2828337145739
C 10.05272307803337 3.1053205937058426 6.095117102605054
H 10.18624653987253 5.938260947460077 1.3043452006385639
H 11.443143533559448 4.904169410196339 1.94385530952768
H 9.770304706578239 4.3094858639116485 1.89301251697831
C 10.393005709257242 5.1846771954436015 2.0383340827606755
H 8.78005113809708 10.042540810381787 8.20732382803336
H 10.47199188015294 9.994342049332372 8.433767104498646
C 9.708440402867135 9.96842549473672 7.685357788268004
H 9.843021870003337 10.81328139767254 7.0106706546159705
Al 8.412266034822906 8.510864857326075 2.7099359265738423
Si 6.574516575207248 9.306866436864796 4.8262011332420744
Si 11.559521393822227 9.141375989143135 2.1079800868216325
Si 14.115343571117476 8.341625281131815 3.522932459018235
O 6.582539475277235 9.187821980878406 6.448163720138761
O 5.292942410415576 8.501276659506283 4.2265996413942295
O 6.350177821246479 10.863260907780555 4.359981797924496
O 14.254856150520125 6.957380510660411 4.364966594096082
O 14.200969419851749 9.649541220665267 4.474123690106821
O 15.28043462959416 8.447629272281834 2.4026054826082888
O 10.227511847014137 8.717614066603446 3.068230946993205
O 7.941120961271151 8.738520680820102 4.315596792559032
O 8.072880936508833 6.983619842566405 2.0893964034187644
O 7.8743989758094095 9.663058664038441 1.603064841833793
O 11.469455856948647 8.71773492557808 0.5336572326956881
O 12.66795405236497 8.266752683700078 2.843752675887004
O 11.865824706600657 10.706790725039427 2.2691664508715386
H 5.92678866947522 8.920358077578758 7.086036793373804
H 6.553959062268354 11.635886581913283 4.879426048663551
H 4.759650514968922 8.56286414077769 3.4392186020871174
H 7.589835896696204 10.51526929376306 1.285530270380001
H 7.836707750987122 6.742843112833439 1.1980290265763545
H 11.294684299082485 11.427282219858968 2.018451610974993
H 11.382033817598614 7.769170831813625 0.5086724924057233
H 14.5315605632526 6.979225922900257 5.276709550368036
H 14.423484892080642 10.287738266659355 5.145985712424431
H 15.771380193050433 9.204539972283039 2.095430954926926
