48

O 10.191249587638303 8.430606428994317 5.78106059762651
O 9.856779718754245 7.566264096513104 7.743739095602687
O 10.122944319151895 4.410872657591774 5.475744875445469
O 10.01666141133803 5.566524403562041 3.2046713143741803
H 9.587173958156328 8.872750104189608 5.1363316471297145
H 9.893142563608885 5.349540229641287 7.603026241564869
H 9.080269091003442 6.235573988424798 6.2225833877253205
H 10.922103491084318 6.247088584275956 6.340481784086052
H 10.047183492691373 4.569733389995508 4.50748896466499
H 10.076999342929463 3.2593359595605955 7.18111335970259
H 10.877642485589734 2.460719656874172 5.742326933967069
H 9.099789933359238 2.6129434491906096 5.849877799038168
H 10.321708283031294 6.466893416553438 3.3639963424898274
C 9.900291829128484 8.593825241041884 7.020545774083629
C 9.972946192921965 6.083740485753187 6.803093530001253
C 10.05191890399937 3.094190736748203 6.078356290793068
H 10.059234975560317 5.939607510868624 1.1739674164507907
H 11.491854848711222 5.097328791560661 1.7601678457964816
H 9.878752074585918 4.266863510784723 1.6776182443263774
C 10.403027104573916 5.186063221706969 1.8706276392396932
H 9.717080023819683 9.608229799590804 7.424788781922271
Al 8.412266034822906 8.510864857326075 2.7099359265738423
Si 6.574516575207248 9.306866436864796 4.8262011332420744
Si 11.559521393822227 9.141375989143135 2.1079800868216325
Si 14.115343571117476 8.341625281131815 3.522932459018235
O 6.582539475277235 9.187821980878406 6.448163720138761
O 5.292942410415576 8.501276659506283 4.2265996413942295
O 6.350177821246479 10.863260907780555 4.359981797924496
O 14.254856150520125 6.957380510660411 4.364966594096082
O 14.200969419851749 9.649541220665267 4.474123690106821
O 15.28043462959416 8.447629272281834 2.4026054826082888
O 10.227511847014137 8.717614066603446 3.068230946993205
O 7.941120961271151 8.738520680820102 4.315596792559032
O 8.072880936508833 6.983619842566405 2.0893964034187644
O 7.8743989758094095 9.663058664038441 1.603064841833793
O 11.469455856948647 8.71773492557808 0.5336572326956881
O 12.66795405236497 8.266752683700078 2.843752675887004
O 11.865824706600657 10.706790725039427 2.2691664508715386
H 5.92678866947522 8.920358077578758 7.086036793373804
H 6.553959062268354 11.635886581913283 4.879426048663551
H 4.759650514968922 8.56286414077769 3.4392186020871174
H 7.589835896696204 10.51526929376306 1.285530270380001
H 7.836707750987122 6.742843112833439 1.1980290265763545
H 11.294684299082485 11.427282219858968 2.018451610974993
H 11.382033817598614 7.769170831813625 0.5086724924057233
H 14.5315605632526 6.979225922900257 5.276709550368036
H 14.423484892080642 10.287738266659355 5.145985712424431
H 15.771380193050433 9.204539972283039 2.095430954926926
