9

H 10.246421638177113 8.99458662390771 3.9136617989064497
O 10.913679918107725 8.711115126123191 5.202042356298593     
O 10.457640661321257 8.847512197423226 7.387350322613966
H 8.480314876049478 8.785065610630149 7.910440736234431
H 8.86444247746799 9.877119784217026 6.5669356773852545
H 8.843704094458792 8.115904436771023 6.2983409027149495
C 11.263130350288842 8.72655668047695 6.357265896190871
C 9.055458697827136 8.90849466937312 7.012344321175715
H 12.312962461556562 8.645851790940174 6.585757272400741