51

O 10.125554740586225 8.48363231735448 5.737077257140759
O 9.789324467953486 7.508868472022918 7.698484508221768
O 10.123101988713502 4.377227757213572 5.474164541368739
O 10.016411119079525 5.566858509767809 3.2042397360923207
H 10.229624483287822 8.792261967529456 4.120568651411981
H 9.986979897476257 5.460345002654377 7.6911449109685375
H 9.104483601335561 6.157721823756347 6.294517814072538
H 10.881455098011543 6.299492912841504 6.380971198809079
H 10.036718248520337 4.443886765501762 4.510230968973613
H 10.1041304755452 3.477215556681457 5.7893257837411465
H 10.321978553363495 6.465116089324608 3.365949212333918
C 9.87004982235233 8.595338731855103 6.939697421652751
C 9.96972987593365 6.246392659811057 6.945784177197323
H 10.059115903358492 5.939231796619003 1.173146486776963
H 11.491880842120676 5.0970500740230955 1.759968000078157
H 9.878783372860076 4.267238423064917 1.6775004262882949
C 10.402880843474321 5.187070222676269 1.8713925233511541
H 8.816683268608145 9.910342982487935 8.222622559364636
H 10.543693623557948 9.845170802562286 8.429585577203323
C 9.757297841290857 9.901855436845526 7.673415429648807
C 9.924031755798497 11.094522785741999 6.737839691170698
H 9.098929133274419 11.157808269622087 6.032482801995559
H 10.844378048149204 11.005346554560184 6.154769847393108
H 9.987842259859839 12.02464108135794 7.278055254184927
Al 8.412266034822906 8.510864857326075 2.7099359265738423
Si 6.574516575207248 9.306866436864796 4.8262011332420744
Si 11.559521393822227 9.141375989143135 2.1079800868216325
Si 14.115343571117476 8.341625281131815 3.522932459018235
O 6.582539475277235 9.187821980878406 6.448163720138761
O 5.292942410415576 8.501276659506283 4.2265996413942295
O 6.350177821246479 10.863260907780555 4.359981797924496
O 14.254856150520125 6.957380510660411 4.364966594096082
O 14.200969419851749 9.649541220665267 4.474123690106821
O 15.28043462959416 8.447629272281834 2.4026054826082888
O 10.227511847014137 8.717614066603446 3.068230946993205
O 7.941120961271151 8.738520680820102 4.315596792559032
O 8.072880936508833 6.983619842566405 2.0893964034187644
O 7.8743989758094095 9.663058664038441 1.603064841833793
O 11.469455856948647 8.71773492557808 0.5336572326956881
O 12.66795405236497 8.266752683700078 2.843752675887004
O 11.865824706600657 10.706790725039427 2.2691664508715386
H 5.92678866947522 8.920358077578758 7.086036793373804
H 6.553959062268354 11.635886581913283 4.879426048663551
H 4.759650514968922 8.56286414077769 3.4392186020871174
H 7.589835896696204 10.51526929376306 1.285530270380001
H 7.836707750987122 6.742843112833439 1.1980290265763545
H 11.294684299082485 11.427282219858968 2.018451610974993
H 11.382033817598614 7.769170831813625 0.5086724924057233
H 14.5315605632526 6.979225922900257 5.276709550368036
H 14.423484892080642 10.287738266659355 5.145985712424431
H 15.771380193050433 9.204539972283039 2.095430954926926
