21

O 10.252378477737755 8.612425413623289 5.738960909420675
O 9.886083788057919 7.613512215115565 7.778325077051202
O 10.123008884926634 4.411210247151434 5.472039174373786
O 10.126428957842021 5.823482450135969 3.3354348411276993
H 9.47486538466953 8.858992152163193 5.161651982597732
H 10.053168009908783 5.345533456380757 7.37297925196835
H 9.084739114633896 6.095471405448806 6.083667298800502
H 10.892919290359233 6.217133203425275 6.0952760807182615
H 10.186051550942185 5.125638324857347 4.036830245009445
H 10.045885562220631 3.5516073734527414 5.906639127831424
H 10.385852292986604 7.432088707552825 3.1560412280909245
C 9.86688609660665 8.609316146381532 7.0762437034469805
C 10.035055037559333 5.580750640649432 6.330397805031251
H 10.186252085495774 5.93832138596243 1.3044054403026861
H 11.443136990616253 4.904168972974688 1.943893201398244
H 9.770324727898496 4.309478398127801 1.8930220438273422
C 10.393002685321099 5.184589713678359 2.038270223015222
H 8.78020280733656 10.04094838254608 8.20356715743244
H 10.472182100037775 9.993864138424154 8.431773498553778
C 9.712232399840097 9.965327381355554 7.675682495099235
H 9.843811496375176 10.813188662481263 7.008785680267873
