33

O 10.190009826303944 8.454626909207885 5.6941181971029975
O 9.790446052448498 7.512075548735905 7.6947464008780475
O 10.122959155692072 4.377558708620743 5.474048550799302
O 10.01643825600372 5.566801338317807 3.204318003477848
H 10.175989601149421 8.741559860956196 4.45534038038488
H 9.986165149423112 5.459896844953851 7.6921814007655565
H 9.103751385025557 6.157363154614657 6.294905976935292
H 10.881779591154157 6.298665342544304 6.3813647196105485
H 10.027351765304992 4.459833030975318 4.50846749031689
H 10.108105645261666 3.4765111971073246 5.784043522761067
H 10.322029480634905 6.465470307704171 3.365327054109029
C 9.860573163383222 8.5933106678672 6.908420280310196
C 9.97022461705295 6.238781768217779 6.944123556560196
H 10.059135630192834 5.939354039169913 1.1733124240348933
H 11.49186162046111 5.097163752824106 1.760008793296585
H 9.878751651770036 4.267212674133361 1.6775528606730958
C 10.402889005568296 5.186948397072306 1.8712197721758026
H 8.786878262642206 9.9083603819637 8.183636124390686
H 10.442783815343873 9.842282364919395 8.423999936665687
C 9.71920787107768 9.89277838754396 7.613175903409862
C 9.919704060073993 11.107681877503776 6.735134373051975
H 9.105675776045809 11.149809199824393 6.005183823782939
H 10.84360953628916 11.00548589992865 6.154815526305811
C 9.951221015593307 12.429429132428039 7.526850769015267
H 9.093798478361146 12.473185970601236 8.174183355172985
H 10.830783738891258 12.462444245001496 8.163908664090034
C 9.991039654176099 13.709677055326468 6.672118270274892
H 9.10014200206672 13.781279601867285 6.034328670290655
H 10.863657513453747 13.663153101716146 5.991958066292498
C 10.09936828240808 14.96363663388111 7.562629202190754
H 9.241234314770496 14.98245412924734 8.254686263252207
H 11.01203025317778 14.96222093547545 8.169667418400083
H 10.073325760035308 15.88299264647191 6.962962132547153
