48

O 10.126061496397762 8.484267976304066 5.737082000125998
O 9.78902609848885 7.50766036642737 7.6982064464600946
O 10.123070274089702 4.377200877665606 5.4741642097786345
O 10.016466164698585 5.566826083140436 3.204205269138799
H 10.229688027965201 8.792432369552811 4.120276935965968
H 9.987045004137329 5.460141248648862 7.691170050915378
H 9.10458265622185 6.15743956460226 6.294491018633984
H 10.881483858545934 6.299479158412855 6.3809896745183154
H 10.03671039675177 4.443940734754486 4.5102372061695135
H 10.104170695695053 3.4773537145569993 5.789204055177576
H 10.32201349891235 6.465103545960739 3.3659041879289893
C 9.860184716521239 8.59025526762705 6.93812454376662
C 9.969961740085125 6.245757785241146 6.945715128733458
H 10.060286740890565 5.939118762644393 1.172981491967155
H 11.5053543004725 5.0851490723851605 1.762313797899525
H 9.878733598243512 4.267314182132591 1.677538246056097
C 10.405035872434038 5.186149922044978 1.8715015129010104
H 8.780176610481437 9.910910062895601 8.201398323961744
H 10.481497696213536 9.842866184486608 8.437557632798777
C 9.722460871830755 9.866796827635433 7.677318144111333
H 9.900075527135161 10.743518504467433 7.050951191149085
Al 8.412266034822906 8.510864857326075 2.7099359265738423
Si 6.574516575207248 9.306866436864796 4.8262011332420744
Si 11.559521393822227 9.141375989143135 2.1079800868216325
Si 14.115343571117476 8.341625281131815 3.522932459018235
O 6.582539475277235 9.187821980878406 6.448163720138761
O 5.292942410415576 8.501276659506283 4.2265996413942295
O 6.350177821246479 10.863260907780555 4.359981797924496
O 14.254856150520125 6.957380510660411 4.364966594096082
O 14.200969419851749 9.649541220665267 4.474123690106821
O 15.28043462959416 8.447629272281834 2.4026054826082888
O 10.227511847014137 8.717614066603446 3.068230946993205
O 7.941120961271151 8.738520680820102 4.315596792559032
O 8.072880936508833 6.983619842566405 2.0893964034187644
O 7.8743989758094095 9.663058664038441 1.603064841833793
O 11.469455856948647 8.71773492557808 0.5336572326956881
O 12.66795405236497 8.266752683700078 2.843752675887004
O 11.865824706600657 10.706790725039427 2.2691664508715386
H 5.92678866947522 8.920358077578758 7.086036793373804
H 6.553959062268354 11.635886581913283 4.879426048663551
H 4.759650514968922 8.56286414077769 3.4392186020871174
H 7.589835896696204 10.51526929376306 1.285530270380001
H 7.836707750987122 6.742843112833439 1.1980290265763545
H 11.294684299082485 11.427282219858968 2.018451610974993
H 11.382033817598614 7.769170831813625 0.5086724924057233
H 14.5315605632526 6.979225922900257 5.276709550368036
H 14.423484892080642 10.287738266659355 5.145985712424431
H 15.771380193050433 9.204539972283039 2.095430954926926
