54

O 10.254064262787557 8.59381554364816 5.775904483139239
O 9.887592634014617 7.612219858005184 7.781146522788242
O 10.121660762118278 4.411516963193749 5.472087976394418
O 10.126453249092878 5.823558607546537 3.3353203390524415
H 9.53608345504183 8.926118848823817 5.190813199690295
H 10.035008306309832 5.3533957249171635 7.356105397687025
H 9.081171068004371 6.101304171834493 6.058021901123801
H 10.89373797482418 6.222081414467424 6.075698731760637
H 10.184425207710568 5.125603830993055 4.037359193670281
H 10.084690202155823 3.2432363099796713 7.199427697127481
H 10.900168658018437 2.55660163431094 5.69469990008023
H 9.10044466448168 2.6200321641290065 5.846113611678339
H 10.385451607839775 7.431950617567107 3.1560266529144854
C 9.86549378611467 8.60642375517512 7.08209910617586
C 10.009434831315215 5.586584236106042 6.282762998109498
C 10.052741434402686 3.105333458667828 6.095061475006838
H 10.170221983403374 5.927918115981384 1.3064596601568503
H 11.443464865166666 4.904467601494765 1.9428208557601074
H 9.770502789707098 4.308831463110969 1.8933655361092512
C 10.392936958068214 5.183618698593055 2.038886700884766
H 8.782010872820136 10.038970204012875 8.20590238779387
H 10.471552981583628 9.956813492532245 8.43442961338679
C 9.715277979659414 9.959644924519063 7.674148158587979
C 9.921157098478423 11.104592236869104 6.722504452676181
H 9.107415493039712 11.176362163573506 5.9893603758373635
H 10.851586533540832 10.993849616606642 6.164928754776391
H 9.987309139376283 12.025962530782472 7.274918180610538
Al 8.412266034822906 8.510864857326075 2.7099359265738423
Si 6.574516575207248 9.306866436864796 4.8262011332420744
Si 11.559521393822227 9.141375989143135 2.1079800868216325
Si 14.115343571117476 8.341625281131815 3.522932459018235
O 6.582539475277235 9.187821980878406 6.448163720138761
O 5.292942410415576 8.501276659506283 4.2265996413942295
O 6.350177821246479 10.863260907780555 4.359981797924496
O 14.254856150520125 6.957380510660411 4.364966594096082
O 14.200969419851749 9.649541220665267 4.474123690106821
O 15.28043462959416 8.447629272281834 2.4026054826082888
O 10.227511847014137 8.717614066603446 3.068230946993205
O 7.941120961271151 8.738520680820102 4.315596792559032
O 8.072880936508833 6.983619842566405 2.0893964034187644
O 7.8743989758094095 9.663058664038441 1.603064841833793
O 11.469455856948647 8.71773492557808 0.5336572326956881
O 12.66795405236497 8.266752683700078 2.843752675887004
O 11.865824706600657 10.706790725039427 2.2691664508715386
H 5.92678866947522 8.920358077578758 7.086036793373804
H 6.553959062268354 11.635886581913283 4.879426048663551
H 4.759650514968922 8.56286414077769 3.4392186020871174
H 7.589835896696204 10.51526929376306 1.285530270380001
H 7.836707750987122 6.742843112833439 1.1980290265763545
H 11.294684299082485 11.427282219858968 2.018451610974993
H 11.382033817598614 7.769170831813625 0.5086724924057233
H 14.5315605632526 6.979225922900257 5.276709550368036
H 14.423484892080642 10.287738266659355 5.145985712424431
H 15.771380193050433 9.204539972283039 2.095430954926926
