54

O 10.190628955692226 8.454495423769622 5.693860586849534
O 9.790407276163068 7.512216186091757 7.694821529407672
O 10.124623746973331 4.376115996859844 5.474543710571971
O 10.016479192089019 5.566748424235365 3.2043329727630097
H 10.186403967518618 8.719646756037445 4.4637573535064545
H 9.986436004815872 5.460232399268223 7.6921624993553355
H 9.103851054660696 6.157749245239265 6.294626637844602
H 10.881653883466042 6.29876054705668 6.38116418242331
H 10.036654863994057 4.441695262269155 4.510307993852652
H 10.075358032750138 3.261146527317528 7.183226012306027
H 10.895068361742007 2.4342750661834547 5.8155558874183875
H 9.10004969180345 2.590693553831737 5.872516432583095
H 10.321986776387469 6.465470040229106 3.365237539531329
C 9.859843954964937 8.593310956564357 6.908278962946849
C 9.970246615743992 6.238571872266428 6.943541617770442
C 10.04966533122183 3.0847901616895923 6.087880015128437
H 10.05914996219999 5.939315595008955 1.1732487323894434
H 11.491864001902966 5.0971375438547035 1.7599429843771324
H 9.878766629367776 4.26719317498914 1.6775456645759415
C 10.402845977454685 5.187063401177188 1.8713179293977935
H 8.785243592466944 9.90834542356055 8.184141512363748
H 10.441780013814432 9.843281307664528 8.42385552820746
C 9.714937337398975 9.895551064215443 7.614707945475034
C 9.91895860374989 11.099871335047146 6.72520940965598
H 9.101141267749876 11.189878457463644 6.006939037143267
H 10.84600819222357 11.00688166467445 6.155394740377986
H 9.987649630507246 12.02388475017646 7.278459168583274
Al 8.412266034822906 8.510864857326075 2.7099359265738423
Si 6.574516575207248 9.306866436864796 4.8262011332420744
Si 11.559521393822227 9.141375989143135 2.1079800868216325
Si 14.115343571117476 8.341625281131815 3.522932459018235
O 6.582539475277235 9.187821980878406 6.448163720138761
O 5.292942410415576 8.501276659506283 4.2265996413942295
O 6.350177821246479 10.863260907780555 4.359981797924496
O 14.254856150520125 6.957380510660411 4.364966594096082
O 14.200969419851749 9.649541220665267 4.474123690106821
O 15.28043462959416 8.447629272281834 2.4026054826082888
O 10.227511847014137 8.717614066603446 3.068230946993205
O 7.941120961271151 8.738520680820102 4.315596792559032
O 8.072880936508833 6.983619842566405 2.0893964034187644
O 7.8743989758094095 9.663058664038441 1.603064841833793
O 11.469455856948647 8.71773492557808 0.5336572326956881
O 12.66795405236497 8.266752683700078 2.843752675887004
O 11.865824706600657 10.706790725039427 2.2691664508715386
H 5.92678866947522 8.920358077578758 7.086036793373804
H 6.553959062268354 11.635886581913283 4.879426048663551
H 4.759650514968922 8.56286414077769 3.4392186020871174
H 7.589835896696204 10.51526929376306 1.285530270380001
H 7.836707750987122 6.742843112833439 1.1980290265763545
H 11.294684299082485 11.427282219858968 2.018451610974993
H 11.382033817598614 7.769170831813625 0.5086724924057233
H 14.5315605632526 6.979225922900257 5.276709550368036
H 14.423484892080642 10.287738266659355 5.145985712424431
H 15.771380193050433 9.204539972283039 2.095430954926926
