33

O 10.189520493774703 8.42796548798594 5.781614413301654
O 9.857847197179606 7.53046827356917 7.741514447714457
O 10.122753724431245 4.410583523019304 5.475356830958044
O 10.016082175285028 5.587169189117021 3.2041725265489394
H 9.58699366845981 8.872485432092976 5.136475481976035
H 9.983822918605476 5.459882095602416 7.692894273632929
H 9.107004937502724 6.1885879837504065 6.298531211858315
H 10.899676341915814 6.2364900301618285 6.362238529154222
H 10.05280805565562 4.555809668827056 4.509978202831612
H 10.077075483151482 3.2599956134425336 7.180925853019689
H 10.877500081552835 2.4600051798132667 5.742809368946628
H 9.099643940789129 2.605741509677254 5.856753836290398
H 10.32792718914674 6.474867340337436 3.355338722089014
C 9.907346784261726 8.59217830898908 7.021359563485152
C 9.97874452324132 6.232416188560553 6.941558528236868
C 10.05292260741524 3.0971157347189924 6.075297590985429
H 10.05945386166067 5.939425182872209 1.1733270206558306
H 11.491704139134724 5.09678453155935 1.760361221879641
H 9.878105772340687 4.26742361667465 1.6798483106709725
C 10.402573990130337 5.1881725082088455 1.8722458824367938
H 8.800616605134858 9.926339370552663 8.203268340507549
H 10.501698443546204 9.908219820710288 8.457314031345016
C 9.75517571075237 9.907152131043217 7.672056061321942
C 9.92209241899323 11.10688210837224 6.739142454835546
H 9.098585807492231 11.127282520317598 6.010502452124124
H 10.843433601814379 11.005330942058546 6.154840308858817
C 9.954207412025083 12.43526580585787 7.5298992228178205
H 9.094190866658723 12.473323207295648 8.174656995353772
H 10.831927744709734 12.461043141034597 8.163965047153384
C 9.988608433332015 13.708669531952092 6.6721628614524136
H 9.100674165691133 13.787174432820027 6.034558086710529
H 10.864987749576722 13.678489681189994 6.010196125663618
H 10.05469026574715 14.600325121668652 7.315039429222395
