30

O 10.228192689649221 8.585133270518348 5.738904952886881
O 9.887048779315972 7.6131224335447945 7.779816998616505
O 10.123013056566522 4.411182208043837 5.472020390914694
O 10.126354967319081 5.823613695510999 3.3354082495626507
H 9.473238164505334 8.859588026637846 5.16199253716113
H 10.055563102967492 5.346638196011961 7.372907939996914
H 9.084972210411879 6.095520187253532 6.083888252713439
H 10.895419872558506 6.222527351429778 6.0796622851575695
H 10.180530087073826 5.127714437694354 4.037328929517361
H 10.045910569297666 3.5516427379592654 5.906651553848455
H 10.385571900613837 7.432059375125203 3.1559889566216017
C 9.861648957119778 8.605684129095694 7.075543750289273
C 10.038369739601542 5.582894891937202 6.329402621593925
H 10.186256378881124 5.938330014830011 1.3043852937232816
H 11.443152590394511 4.904147226597903 1.9438981272047764
H 9.770335004170128 4.309493425646444 1.8929921260716396
C 10.392981596840826 5.184567966224791 2.0383338529471993
H 8.780582978702444 10.037833908801403 8.20340430329774
H 10.468264533694976 9.962164281972697 8.426485456912058
C 9.711913910796932 9.964983830013903 7.66474330459992
C 9.884866657283249 11.155893367623415 6.720870498935926
H 9.095081852984897 11.162225999949012 5.979959667955285
H 10.828702735988486 11.027579183267628 6.159826191670296
C 9.964850124704856 12.467149813108584 7.520350192385374
H 9.09700702482659 12.476794168069715 8.173548073790558
H 10.8346732745494 12.466854359880701 8.162418553151337
C 9.990115396158114 13.723962582239123 6.670558672719883
H 9.107394121166225 13.801673049856415 6.0308473648574665
H 10.863275926396218 13.69483778381607 6.002227190583048
H 10.05541833300926 14.602420648968465 7.314950968694745
