33

O 10.189945307078546 8.576279373404015 5.7696404116509115
O 9.902511914009603 7.5946679671816995 7.785055175905554
O 10.121643424072529 4.411546899070333 5.4720599801800445
O 10.126467126397026 5.823669686546543 3.335302158115862
H 9.506493026883863 9.038329312846258 5.230182552692606
H 10.03525588131103 5.35290397949259 7.355764966506462
H 9.081234510704698 6.101382970995078 6.058099357196967
H 10.89377773392058 6.221975854992427 6.075620250819629
H 10.181324085464464 5.126837671027895 4.037770085196212
H 10.084677012031358 3.2432976351798364 7.199405173763157
H 10.900142276010676 2.5566333419369176 5.694668779101519
H 9.100382351963864 2.620218695538586 5.846079998754839
H 10.385318759593792 7.431990798112392 3.1562778648048924
C 9.868474792308902 8.598168002437461 7.088046187134917
C 10.00930550931062 5.586506639215595 6.282759386623924
C 10.052733301965244 3.105442939826773 6.095029340731695
H 10.170194427755856 5.927964598098545 1.306470112269541
H 11.443464895071322 4.904464843555483 1.9428229717981207
H 9.770503788857667 4.3088599326386285 1.893361928365185
C 10.392915805646599 5.1836216545200555 2.0389529584343777
H 8.783333153149902 10.037591224385574 8.207674410709345
H 10.479081168086449 9.974720830802626 8.435199854234405
C 9.71649764141718 9.962998548727763 7.671280150936585
C 9.884922441517409 11.15463011088354 6.72140467840375
H 9.094506868829116 11.162513579718473 5.980381029189338
H 10.828952594221338 11.02820472249947 6.160070896609092
C 9.964750493924813 12.467164816763663 7.520430792014537
H 9.097003233380732 12.476718784294478 8.17353501808957
H 10.834707300478994 12.466935389784815 8.162379900612725
C 9.992120562271914 13.724018644771187 6.669919547393467
H 9.108010091109458 13.801742422036725 6.030619145343532
H 10.876171852863678 13.685824101762881 6.00858359207492
H 10.055737614358543 14.602376701519988 7.314898786302173
