33

O 10.229304758242764 8.454840769479777 5.74021935830568
O 9.830858426873844 7.557975816064977 7.742769448775178
O 10.123317749757183 4.412475745835311 5.47594580282505
O 10.0183245938755 5.5903424298892865 3.2052392144533486
H 9.586138697439972 8.872283108921325 5.137266726387232
H 9.93719908961883 5.327452651856043 7.607690702243724
H 9.059912783543178 6.118617490013036 6.206755777953509
H 10.914955159504093 6.2496334139216865 6.338141425652646
H 9.994168028816976 4.654608531652611 4.496579936367552
H 10.076603675561433 3.2589565908581055 7.181085402007065
H 10.877314959515218 2.461607050484816 5.741542778649756
H 9.097563244161337 2.6187563525366855 5.845751635123611
H 10.315728889375448 6.523172044309988 3.3615219054736047
C 9.871182479853172 8.578008104219531 7.052906458141437
C 9.986175079277064 5.816926261462876 6.643036049283938
C 10.046023558723702 3.0868315248527156 6.083387351274619
H 10.059175018957205 5.939530102761258 1.174015632444751
H 11.491674612752826 5.097437170489159 1.7605329230017226
H 9.877903967158487 4.267167090172596 1.6802792121917058
C 10.403208182428667 5.187140652913269 1.8710723972073546
H 8.800689120372187 9.927295761212807 8.203808309859879
H 10.501884279638693 9.908129693556262 8.456233609821963
C 9.75441193978405 9.910606871905632 7.672855752261456
C 9.922422976046125 11.109230363555637 6.742422308753932
H 9.101874865676841 11.144868431364925 6.025065106189924
H 10.836010402391478 11.011838718732307 6.1597657954430804
C 9.95735435362784 12.439700879100622 7.528989802048749
H 9.094962065683596 12.473484391087613 8.174063006911588
H 10.83207977471023 12.466989864261969 8.164456817632868
C 9.990209304259832 13.709891380058025 6.6715334005223905
H 9.101327889832072 13.78772004285139 6.033894274074751
H 10.875729571613109 13.685056714294532 6.009232971077529
H 10.054613283033543 14.60059190881488 7.314965744667814
