24

O 10.125708538104327 8.48398576853587 5.737061855150413
O 9.78902112614587 7.507729480156913 7.698297623655432
O 10.126106118054564 4.375164520614267 5.474400602999496
O 10.016410536220938 5.56684843302857 3.2042529914455162
H 10.229649840407411 8.792449543812783 4.120378831739608
H 9.987260507909806 5.46066842000372 7.691149222801038
H 9.104799831709684 6.158298316435995 6.29399814665462
H 10.881362457188947 6.299563124110386 6.380827175958058
H 10.036601888053593 4.441190168965837 4.510527620435368
H 10.070780685984841 3.265623664075906 7.184796680666813
H 10.895170173033847 2.4329966083947236 5.817327714209281
H 9.10009414942795 2.5906413270523836 5.872533536317923
H 10.321993091293107 6.465091167282961 3.3659587776229514
C 9.860151406136197 8.59026488265709 6.937996660994498
C 9.96979682795957 6.2459471002429465 6.945289435281522
C 10.04985406909657 3.085311973292998 6.088305327859643
H 10.05923011168051 5.93927267272614 1.1730677732173802
H 11.491654305465275 5.096903489671529 1.7601104474716003
H 9.878759799466359 4.26722875677392 1.6774638223445701
C 10.40282459866571 5.187071669484775 1.8714486353053281
H 8.77985937641164 9.911240032700826 8.201007380154477
H 10.48165678568871 9.842559598208261 8.437446613415972
C 9.722410489899067 9.8666692916733 7.6772320787862345
H 9.899822056649022 10.7434818250879 7.051002104814927
