27

O 10.189159475944379 8.429236966996836 5.782658577553598
O 9.8308452109346 7.556794047587827 7.744156063393199
O 10.123428290119394 4.412308540018921 5.476214324012548
O 10.016072643233558 5.586785392508921 3.2049775708314314
H 9.587444289960205 8.873115809000634 5.1388837769206015
H 9.922466360937053 5.344324578621424 7.633536250939233
H 9.05705661042647 6.117133067884956 6.206451505794784
H 10.899717110614006 6.23378068405204 6.356506660978971
H 10.051848369958938 4.689410471625978 4.50956250137303
H 10.076930694124913 3.2590584015712682 7.180585571042046
H 10.87773893303409 2.4612068140425722 5.741422284203259
H 9.098636472747327 2.619053856401131 5.845743294347197
H 10.327110441475595 6.475676167703325 3.355066011804355
C 9.866633690871769 8.58366437328652 7.064853315402314
C 9.968710787103118 5.884485356917271 6.707835150485201
C 10.051358784380263 3.0917648378095484 6.0781532138043035
H 10.059177771251093 5.939536838562941 1.1741235540613406
H 11.491663632519996 5.097363256775654 1.7605912332436962
H 9.878118760886297 4.266931723237357 1.6796334285604821
C 10.403064930378967 5.1862825962989945 1.8708737694222648
H 8.800086428677242 9.926894705670918 8.206231999331784
H 10.501505433330902 9.90870293616078 8.457101112717627
C 9.75355885737998 9.91259914685657 7.676781488940546
C 9.924309653294202 11.096128565990801 6.734517802429965
H 9.100839620670705 11.169834512948546 6.026053748247082
H 10.846445744184157 11.006436280414933 6.156196709886956
H 9.987789637668127 12.024555002089201 7.277698932010666
