36

O 10.18969186792208 8.427917272331747 5.78168274162696
O 9.857836231038348 7.5304843972544475 7.741446552730099
O 10.122771897052878 4.410597998746153 5.475349239773592
O 10.01618263902756 5.587237816283474 3.2042272956371805
H 9.587710279049055 8.872648166439978 5.136141989243094
H 9.983821259187021 5.459907282471632 7.6928932064641975
H 9.107066700270765 6.188643284719754 6.298507562230862
H 10.899666418342727 6.236488577967699 6.362239254479549
H 10.052821998262973 4.555805099991984 4.509974608860023
H 10.077075556241994 3.2599990815437336 7.180927225792105
H 10.877500362887021 2.460016187969396 5.742792826627543
H 9.099673893591333 2.6057856212111234 5.856683522018426
H 10.327863780946416 6.474880162366925 3.3554535354793313
C 9.907063822807013 8.592049755848583 7.021226887413018
C 9.97873756723291 6.232545518676495 6.941589423037962
C 10.052931556780251 3.0971452141214426 6.075285439551283
H 10.059460507384053 5.939390326537476 1.1733092067004909
H 11.492238520007167 5.097876827105107 1.7601629605544553
H 9.878234244378609 4.267405460068892 1.679649903269877
C 10.402649139331414 5.1882343717878 1.8722399622835766
H 8.800866514007824 9.926522511238844 8.203202894360931
H 10.50198916458588 9.908401099590327 8.456968894884495
C 9.755244376896556 9.90718272279504 7.671854602060618
C 9.921984750691193 11.101713964015923 6.731999646275595
H 9.099079825124443 11.12509433044973 6.0082023462433405
H 10.838446582921044 11.00123543279904 6.147702127781011
C 9.970200715599194 12.424106286736585 7.496651809914416
H 9.098798182963497 12.468563487565083 8.169307381503195
H 10.833059241514162 12.45441639002735 8.15906776233446
C 9.993415301620901 13.709545065395027 6.669826292000482
H 9.100330400441509 13.781262212172953 6.03418371187967
H 10.863739461263386 13.66472867539226 5.990400288008336
C 10.099391643299844 14.962516298305497 7.562885728583628
H 9.241278896419729 14.982078885113648 8.254790647757927
H 11.012066464376389 14.96218425384231 8.1696665160825
H 10.073297061538081 15.882212838159797 6.962846881308959
