33

O 10.186185057441286 8.429531579846113 5.780606242609774
O 9.858043507430517 7.530238108060123 7.741665293506174
O 10.122391371917852 4.409923634145751 5.475119995398528
O 10.016215121718293 5.587255132853685 3.2041595004404853
H 9.54386859618798 8.915160054575429 5.181749318747634
H 9.98320730581204 5.4592968110376034 7.692761003517962
H 9.106943527319897 6.1884970566157556 6.298637820223518
H 10.899956072349186 6.23641488012783 6.362674925121872
H 10.054691135486266 4.561536156329664 4.5086836490735305
H 10.120189155057716 3.4891450598125107 5.781330410753433
H 10.327921683236724 6.475006178194739 3.3554224476283947
C 9.910239493058942 8.590784992588262 7.023543698439164
C 9.978788911782704 6.232389630667786 6.942173285072934
H 10.059448993219304 5.9394059183492285 1.17334301726075
H 11.491664934417852 5.097328882587998 1.760317968036307
H 9.87816875357633 4.267341320952988 1.6797626092192959
C 10.40249569973449 5.18806729795104 1.872195602167034
H 8.80063104276711 9.926316239349017 8.203316325473851
H 10.501650228632416 9.90833621212871 8.457483702093926
C 9.755273762931001 9.906862577975923 7.67223302038696
C 9.92239433664588 11.104854282642792 6.738429117871244
H 9.100384726509402 11.124465028975148 6.00868674726536
H 10.846982500992516 11.007402430178116 6.15916180234748
C 9.951011552991236 12.431286074421855 7.526137572832308
H 9.09386016088044 12.47326684100541 8.174085925885093
H 10.83090900559059 12.461626816864644 8.163582600526038
C 9.991096250531674 13.710071258338763 6.671877852039394
H 9.100174469501445 13.781353037171462 6.0342621149196844
H 10.863236054795436 13.66310210108768 5.9916269243048
C 10.099383072981519 14.963597271711752 7.562698321424268
H 9.241265351910867 14.982480081764793 8.254637574603603
H 11.012056484562363 14.96220422418012 8.169634256907337
H 10.073407916141512 15.882787699054045 6.962826950567731
