21

O 10.188475503653475 8.465608811528668 5.737771828623323
O 9.857329410489864 7.564810883514311 7.741792902098983
O 10.123374236777565 4.41150049528809 5.473704912782466
O 10.060239501409793 5.624637719724791 3.255749118564867
H 9.526526093827977 8.957401998993527 5.17776329358192
H 9.985768642122903 5.323499478168636 7.650435053218
H 9.093297229158052 6.168926194994057 6.248679297385261
H 10.924600050142121 6.222013450269097 6.340254262883
H 10.036631179733476 4.705688509538974 4.511718182933123
H 9.97000847527135 3.484922803896346 5.661402118288818
H 10.322507480938379 6.554939424701735 3.4385227360231236
C 9.889035980767924 8.591396027469587 7.015704701265636
C 9.991212878747659 5.939540564983816 6.7605535164001385
H 10.20631640910307 5.920247763337472 1.1842545563736022
H 11.541131400643847 4.983767975022697 1.8966495491699153
H 9.877617371468258 4.276290413103275 1.7966470775423002
C 10.464179702172302 5.1799185942491475 1.9418673823513604
H 8.70617580586116 9.970012615408901 8.142454739165998
H 10.429856812310211 9.954529643599038 8.435753698804929
C 9.672372151221694 9.911153329641348 7.666533946240275
H 9.890890416024693 10.769569093135026 7.042348784138564
